@<TRIPOS>MOLECULE
ZINC000550782577
51	53	1	0	0
SMALL
USER_CHARGES
@<TRIPOS>ATOM
1      C1     -0.7687    3.3846   -0.3120 C.3      1 ZINC000550782577    0.0700
2      N2     -0.2881    2.1057   -0.8408 N.am     1 ZINC000550782577   -0.5900
3      C3      0.2106    1.1749   -0.0034 C.2      1 ZINC000550782577    0.5800
4      O4      0.6474    0.1306   -0.4461 O.2      1 ZINC000550782577   -0.5400
5      C5      0.2263    1.4242    1.4547 C.ar     1 ZINC000550782577    0.0300
6      C6      0.6065    0.4034    2.3250 C.ar     1 ZINC000550782577   -0.0600
7      C7      0.6173    0.6484    3.6867 C.ar     1 ZINC000550782577   -0.1200
8      C8      0.2457    1.9123    4.1360 C.ar     1 ZINC000550782577    0.1100
9      O9      0.2425    2.1956    5.4633 O.3      1 ZINC000550782577   -0.3000
10     C10    -0.0255    3.5485    5.8373 C.3      1 ZINC000550782577    0.1000
11     C11    -1.4392    3.9297    5.3937 C.3      1 ZINC000550782577   -0.2000
12     C12     0.0878    3.6896    7.3566 C.3      1 ZINC000550782577   -0.1400
13     C13     0.9881    4.4746    5.1621 C.3      1 ZINC000550782577   -0.2000
14     C14    -0.1225    2.8831    3.2076 C.ar     1 ZINC000550782577   -0.0100
15     N15    -0.1168    2.6197    1.9208 N.ar     1 ZINC000550782577   -0.4100
16     C16    -0.3495    1.8386   -2.2800 C.3      1 ZINC000550782577    0.1400
17     H17     0.0488    0.8452   -2.4861 H        1 ZINC000550782577    0.1100
18     C18    -1.8036    1.9215   -2.7588 C.3      1 ZINC000550782577   -0.1300
19     C19    -1.8678    1.4079   -4.1958 C.3      1 ZINC000550782577   -0.0800
20     C20    -0.8379    2.0982   -5.0512 C.ar     1 ZINC000550782577   -0.0800
21     C21    -0.9991    2.0420   -6.4293 C.ar     1 ZINC000550782577   -0.1200
22     C22    -0.0868    2.6495   -7.2673 C.ar     1 ZINC000550782577   -0.1200
23     C23     0.9973    3.3191   -6.7316 C.ar     1 ZINC000550782577   -0.1200
24     C24     1.1580    3.3781   -5.3625 C.ar     1 ZINC000550782577   -0.1200
25     C25     0.2389    2.7704   -4.5173 C.ar     1 ZINC000550782577   -0.0700
26     C26     0.4675    2.8867   -3.0329 C.3      1 ZINC000550782577   -0.0900
27     H27     0.0732    4.0656   -0.1872 H        1 ZINC000550782577    0.0600
28     H28    -1.4870    3.8185   -1.0076 H        1 ZINC000550782577    0.0600
29     H29    -1.2499    3.2213    0.6523 H        1 ZINC000550782577    0.1100
30     H30     0.8886   -0.5659    1.9413 H        1 ZINC000550782577    0.1600
31     H31     0.9070   -0.1231    4.3848 H        1 ZINC000550782577    0.1500
32     H32    -2.1578    3.5922    6.1405 H        1 ZINC000550782577    0.0700
33     H33    -1.5071    5.0124    5.2874 H        1 ZINC000550782577    0.0800
34     H34    -1.6600    3.4562    4.4370 H        1 ZINC000550782577    0.0800
35     H35     1.0950    3.4180    7.6726 H        1 ZINC000550782577    0.0700
36     H36    -0.1167    4.7216    7.6418 H        1 ZINC000550782577    0.0800
37     H37    -0.6343    3.0298    7.8376 H        1 ZINC000550782577    0.0700
38     H38     0.9042    4.3775    4.0797 H        1 ZINC000550782577    0.0800
39     H39     0.7865    5.5061    5.4511 H        1 ZINC000550782577    0.0800
40     H40     1.9956    4.2000    5.4745 H        1 ZINC000550782577    0.0700
41     H41    -0.4119    3.8657    3.5497 H        1 ZINC000550782577    0.1900
42     H42    -2.4361    1.3050   -2.1201 H        1 ZINC000550782577    0.0700
43     H43    -2.1433    2.9566   -2.7234 H        1 ZINC000550782577    0.0700
44     H44    -1.6796    0.3343   -4.2025 H        1 ZINC000550782577    0.0800
45     H45    -2.8606    1.6008   -4.6024 H        1 ZINC000550782577    0.0800
46     H46    -1.8454    1.5182   -6.8486 H        1 ZINC000550782577    0.1200
47     H47    -0.2190    2.6018   -8.3381 H        1 ZINC000550782577    0.1200
48     H48     1.7164    3.7942   -7.3825 H        1 ZINC000550782577    0.1200
49     H49     2.0055    3.9012   -4.9448 H        1 ZINC000550782577    0.1200
50     H50     0.1697    3.8810   -2.7001 H        1 ZINC000550782577    0.0800
51     H51     1.5262    2.7391   -2.8196 H        1 ZINC000550782577    0.0800
@<TRIPOS>BOND
1     1     2     1
2     1     27    1
3     1     28    1
4     1     29    1
5     2     3     am
6     2     16    1
7     3     4     2
8     3     5     1
9     5     15    ar
10    5     6     ar
11    6     7     ar
12    6     30    1
13    7     8     ar
14    7     31    1
15    8     9     1
16    8     14    ar
17    9     10    1
18    10    11    1
19    10    12    1
20    10    13    1
21    11    32    1
22    11    33    1
23    11    34    1
24    12    35    1
25    12    36    1
26    12    37    1
27    13    38    1
28    13    39    1
29    13    40    1
30    14    15    ar
31    14    41    1
32    16    17    1
33    16    26    1
34    16    18    1
35    18    19    1
36    18    42    1
37    18    43    1
38    19    20    1
39    19    44    1
40    19    45    1
41    20    25    ar
42    20    21    ar
43    21    22    ar
44    21    46    1
45    22    23    ar
46    22    47    1
47    23    24    ar
48    23    48    1
49    24    25    ar
50    24    49    1
51    25    26    1
52    26    50    1
53    26    51    1
@<TRIPOS>SUBSTRUCTURE
1   ZINC000550782577 1     RESIDUE    1   A     ZIN   1
@<TRIPOS>MOLECULE
ZINC000509132103
52	55	1	0	0
SMALL
USER_CHARGES
@<TRIPOS>ATOM
1      C1     -0.0173    1.4248    0.0099 C.3      1 ZINC000509132103    0.0300
2      O2      0.0021   -0.0041    0.0020 O.3      1 ZINC000509132103   -0.3000
3      C3      0.6249   -0.6174    1.0399 C.ar     1 ZINC000509132103    0.2700
4      C4      0.6874   -2.0072    1.0950 C.ar     1 ZINC000509132103   -0.1300
5      C5      1.3349   -2.5858    2.1763 C.ar     1 ZINC000509132103   -0.0700
6      C6      1.8799   -1.7451    3.1357 C.ar     1 ZINC000509132103    0.0500
7      C7      2.5938   -2.3259    4.3290 C.3      1 ZINC000509132103   -0.0500
8      S8      4.3546   -2.5264    3.9417 S.3      1 ZINC000509132103   -0.1500
9      C9      5.0322   -3.2250    5.4725 C.3      1 ZINC000509132103   -0.1300
10     C10     6.5127   -3.4533    5.3082 C.2      1 ZINC000509132103    0.5400
11     O11     7.0572   -3.1724    4.2615 O.2      1 ZINC000509132103   -0.5100
12     N12     7.2318   -3.9696    6.3245 N.am     1 ZINC000509132103   -0.6100
13     C13     6.6022   -4.3255    7.6007 C.3      1 ZINC000509132103    0.1500
14     C14     7.4580   -3.8376    8.7426 C.ar     1 ZINC000509132103   -0.1000
15     C15     6.9124   -3.8650   10.0184 C.ar     1 ZINC000509132103   -0.1100
16     C16     7.6501   -3.4411   11.1050 C.ar     1 ZINC000509132103   -0.1200
17     C17     8.9426   -2.9873   10.9208 C.ar     1 ZINC000509132103   -0.1200
18     C18     9.4846   -2.9559    9.6526 C.ar     1 ZINC000509132103   -0.1100
19     C19     8.7422   -3.3763    8.5561 C.ar     1 ZINC000509132103   -0.0600
20     C20     9.3897   -3.2883    7.1992 C.3      1 ZINC000509132103   -0.0200
21     H21     9.3405   -2.2588    6.8447 H        1 ZINC000509132103    0.1000
22     C22    10.8335   -3.7055    7.3110 C.ar     1 ZINC000509132103   -0.0800
23     C23    11.1536   -4.9761    7.7513 C.ar     1 ZINC000509132103   -0.1100
24     C24    12.4780   -5.3588    7.8538 C.ar     1 ZINC000509132103   -0.1200
25     C25    13.4822   -4.4710    7.5157 C.ar     1 ZINC000509132103   -0.1200
26     C26    13.1619   -3.2007    7.0746 C.ar     1 ZINC000509132103   -0.1200
27     C27    11.8375   -2.8194    6.9679 C.ar     1 ZINC000509132103   -0.1100
28     C28     8.6795   -4.2047    6.1960 C.3      1 ZINC000509132103    0.1200
29     N29     1.7735   -0.4377    3.0029 N.ar     1 ZINC000509132103   -0.1900
30     N30     1.1802    0.1031    2.0014 N.ar     1 ZINC000509132103   -0.3000
31     H31     1.0053    1.8021    0.0021 H        1 ZINC000509132103    0.0600
32     H32    -0.5445    1.7859   -0.8732 H        1 ZINC000509132103    0.1000
33     H33    -0.5275    1.7763    0.9067 H        1 ZINC000509132103    0.0600
34     H34     0.2452   -2.6157    0.3200 H        1 ZINC000509132103    0.1600
35     H35     1.4122   -3.6590    2.2689 H        1 ZINC000509132103    0.1600
36     H36     2.4833   -1.6547    5.1807 H        1 ZINC000509132103    0.1100
37     H37     2.1627   -3.2968    4.5732 H        1 ZINC000509132103    0.1000
38     H38     4.8606   -2.5313    6.2955 H        1 ZINC000509132103    0.1100
39     H39     4.5400   -4.1734    5.6881 H        1 ZINC000509132103    0.1100
40     H40     5.6177   -3.8615    7.6613 H        1 ZINC000509132103    0.1000
41     H41     6.4965   -5.4085    7.6635 H        1 ZINC000509132103    0.0900
42     H42     5.9027   -4.2204   10.1619 H        1 ZINC000509132103    0.1200
43     H43     7.2194   -3.4642   12.0951 H        1 ZINC000509132103    0.1300
44     H44     9.5265   -2.6577   11.7674 H        1 ZINC000509132103    0.1200
45     H45    10.4947   -2.6011    9.5108 H        1 ZINC000509132103    0.1200
46     H46    10.3691   -5.6698    8.0155 H        1 ZINC000509132103    0.1200
47     H47    12.7282   -6.3513    8.1985 H        1 ZINC000509132103    0.1200
48     H48    14.5169   -4.7697    7.5965 H        1 ZINC000509132103    0.1200
49     H49    13.9465   -2.5069    6.8107 H        1 ZINC000509132103    0.1200
50     H50    11.5873   -1.8269    6.6233 H        1 ZINC000509132103    0.1200
51     H51     8.9105   -5.2461    6.4202 H        1 ZINC000509132103    0.0800
52     H52     9.0034   -3.9642    5.1834 H        1 ZINC000509132103    0.1000
@<TRIPOS>BOND
1     1     2     1
2     1     31    1
3     1     32    1
4     1     33    1
5     2     3     1
6     3     30    ar
7     3     4     ar
8     4     5     ar
9     4     34    1
10    5     6     ar
11    5     35    1
12    6     7     1
13    6     29    ar
14    7     8     1
15    7     36    1
16    7     37    1
17    8     9     1
18    9     10    1
19    9     38    1
20    9     39    1
21    10    11    2
22    10    12    am
23    12    28    1
24    12    13    1
25    13    14    1
26    13    40    1
27    13    41    1
28    14    19    ar
29    14    15    ar
30    15    16    ar
31    15    42    1
32    16    17    ar
33    16    43    1
34    17    18    ar
35    17    44    1
36    18    19    ar
37    18    45    1
38    19    20    1
39    20    21    1
40    20    22    1
41    20    28    1
42    22    27    ar
43    22    23    ar
44    23    24    ar
45    23    46    1
46    24    25    ar
47    24    47    1
48    25    26    ar
49    25    48    1
50    26    27    ar
51    26    49    1
52    27    50    1
53    28    51    1
54    28    52    1
55    29    30    ar
@<TRIPOS>SUBSTRUCTURE
1   ZINC000509132103 1     RESIDUE    1   A     ZIN   1
@<TRIPOS>MOLECULE
ZINC001312809190
58	61	1	0	0
SMALL
USER_CHARGES
@<TRIPOS>ATOM
1      C1     -0.0361    1.4402    0.0158 C.3      1 ZINC001312809190    0.0300
2      O2     -0.0117    0.0114    0.0086 O.3      1 ZINC001312809190   -0.3200
3      C3     -1.2119   -0.6261    0.0147 C.ar     1 ZINC001312809190    0.1300
4      C4     -2.3886    0.1082    0.0216 C.ar     1 ZINC001312809190   -0.2100
5      C5     -3.6075   -0.5423    0.0273 C.ar     1 ZINC001312809190   -0.0800
6      C6     -3.6550   -1.9239    0.0267 C.ar     1 ZINC001312809190   -0.1300
7      C7     -2.4832   -2.6583    0.0203 C.ar     1 ZINC001312809190   -0.0500
8      C8     -2.5386   -4.1643    0.0201 C.3      1 ZINC001312809190    0.1200
9      H9     -1.5851   -4.5630    0.3665 H        1 ZINC001312809190    0.0500
10     C10    -2.8151   -4.6643   -1.3992 C.3      1 ZINC001312809190   -0.1400
11     N11    -3.6122   -4.6150    0.9159 N.3      1 ZINC001312809190   -0.5300
12     C12    -3.5727   -3.8885    2.1920 C.3      1 ZINC001312809190    0.0300
13     C13    -4.8077   -4.2538    3.0224 C.3      1 ZINC001312809190    0.1400
14     N14    -4.8737   -5.7182    3.1422 N.am     1 ZINC001312809190   -0.6300
15     C15    -5.0162   -6.3081    4.3456 C.2      1 ZINC001312809190    0.7100
16     O16    -4.9967   -5.6356    5.3584 O.2      1 ZINC001312809190   -0.5800
17     N17    -5.1804   -7.6434    4.4263 N.am     1 ZINC001312809190   -0.7300
18     C18    -5.4445   -8.2718    5.7230 C.3      1 ZINC001312809190    0.1800
19     H19    -4.9192   -7.7481    6.5217 H        1 ZINC001312809190    0.1200
20     C20    -6.9337   -8.3326    6.0026 C.ar     1 ZINC001312809190   -0.1900
21     C21    -7.9357   -7.3956    5.8837 C.ar     1 ZINC001312809190   -0.0500
22     C22    -9.2384   -7.7314    6.2085 C.ar     1 ZINC001312809190   -0.1500
23     C23    -9.5280   -9.0084    6.6517 C.ar     1 ZINC001312809190   -0.0800
24     C24    -8.5249   -9.9477    6.7750 C.ar     1 ZINC001312809190   -0.1400
25     C25    -7.2111   -9.6170    6.4535 C.ar     1 ZINC001312809190    0.1100
26     O26    -6.0800  -10.3719    6.5175 O.3      1 ZINC001312809190   -0.2900
27     C27    -5.0613   -9.7705    5.6993 C.3      1 ZINC001312809190    0.0800
28     H28    -5.1007  -10.1628    4.6831 H        1 ZINC001312809190    0.0900
29     C29    -3.6758   -9.9907    6.3097 C.3      1 ZINC001312809190   -0.1500
30     C30    -4.7806   -6.5218    1.9138 C.3      1 ZINC001312809190    0.1200
31     C31    -3.5467   -6.0672    1.1271 C.3      1 ZINC001312809190    0.0400
32     C32    -1.2622   -2.0127    0.0083 C.ar     1 ZINC001312809190   -0.1500
33     H33     0.9852    1.8210    0.0098 H        1 ZINC001312809190    0.1000
34     H34    -0.5629    1.7991   -0.8684 H        1 ZINC001312809190    0.0600
35     H35    -0.5491    1.7903    0.9115 H        1 ZINC001312809190    0.0600
36     H36    -2.3521    1.1876    0.0229 H        1 ZINC001312809190    0.1300
37     H37    -4.5240    0.0290    0.0327 H        1 ZINC001312809190    0.1300
38     H38    -4.6087   -2.4306    0.0315 H        1 ZINC001312809190    0.1300
39     H39    -3.7687   -4.2656   -1.7456 H        1 ZINC001312809190    0.0700
40     H40    -2.0186   -4.3299   -2.0639 H        1 ZINC001312809190    0.0600
41     H41    -2.8552   -5.7536   -1.3993 H        1 ZINC001312809190    0.0600
42     H42    -2.6715   -4.1643    2.7398 H        1 ZINC001312809190    0.0400
43     H43    -3.5679   -2.8156    1.9998 H        1 ZINC001312809190    0.1000
44     H44    -4.7270   -3.8085    4.0140 H        1 ZINC001312809190    0.1000
45     H45    -5.7052   -3.8862    2.5249 H        1 ZINC001312809190    0.0700
46     H46    -5.1238   -8.1883    3.6258 H        1 ZINC001312809190    0.4000
47     H47    -7.7050   -6.3990    5.5374 H        1 ZINC001312809190    0.1200
48     H48   -10.0260   -6.9982    6.1163 H        1 ZINC001312809190    0.1300
49     H49   -10.5446   -9.2721    6.9031 H        1 ZINC001312809190    0.1300
50     H50    -8.7596  -10.9430    7.1224 H        1 ZINC001312809190    0.1300
51     H51    -3.4682  -11.0594    6.3638 H        1 ZINC001312809190    0.0800
52     H52    -2.9235   -9.5054    5.6879 H        1 ZINC001312809190    0.0800
53     H53    -3.6485   -9.5642    7.3125 H        1 ZINC001312809190    0.0700
54     H54    -4.6820   -7.5760    2.1726 H        1 ZINC001312809190    0.0800
55     H55    -5.6755   -6.3722    1.3098 H        1 ZINC001312809190    0.0800
56     H56    -3.5231   -6.5744    0.1626 H        1 ZINC001312809190    0.0900
57     H57    -2.6459   -6.3126    1.6897 H        1 ZINC001312809190    0.0400
58     H58    -0.3474   -2.5867    0.0030 H        1 ZINC001312809190    0.1300
@<TRIPOS>BOND
1     1     2     1
2     1     33    1
3     1     34    1
4     1     35    1
5     2     3     1
6     3     32    ar
7     3     4     ar
8     4     5     ar
9     4     36    1
10    5     6     ar
11    5     37    1
12    6     7     ar
13    6     38    1
14    7     8     1
15    7     32    ar
16    8     9     1
17    8     10    1
18    8     11    1
19    10    39    1
20    10    40    1
21    10    41    1
22    11    31    1
23    11    12    1
24    12    13    1
25    12    42    1
26    12    43    1
27    13    14    1
28    13    44    1
29    13    45    1
30    14    15    am
31    14    30    1
32    15    16    2
33    15    17    am
34    17    18    1
35    17    46    1
36    18    19    1
37    18    27    1
38    18    20    1
39    20    25    ar
40    20    21    ar
41    21    22    ar
42    21    47    1
43    22    23    ar
44    22    48    1
45    23    24    ar
46    23    49    1
47    24    25    ar
48    24    50    1
49    25    26    1
50    26    27    1
51    27    28    1
52    27    29    1
53    29    51    1
54    29    52    1
55    29    53    1
56    30    31    1
57    30    54    1
58    30    55    1
59    31    56    1
60    31    57    1
61    32    58    1
@<TRIPOS>SUBSTRUCTURE
1   ZINC001312809190 1     RESIDUE    1   A     ZIN   1
@<TRIPOS>MOLECULE
ZINC000536173632
49	51	1	0	0
SMALL
USER_CHARGES
@<TRIPOS>ATOM
1      C1     -0.0176    1.4478    0.0100 C.3      1 ZINC000536173632    0.0400
2      O2      0.0021   -0.0041    0.0020 O.3      1 ZINC000536173632   -0.3500
3      C3      0.6005   -0.6018   -1.0464 C.2      1 ZINC000536173632    0.5100
4      O4      1.0924    0.0714   -1.9298 O.2      1 ZINC000536173632   -0.5000
5      C5      0.6585   -2.0760   -1.1219 C.ar     1 ZINC000536173632   -0.1300
6      C6      0.0892   -2.8528   -0.1112 C.ar     1 ZINC000536173632   -0.0600
7      C7      0.1470   -4.2291   -0.1879 C.ar     1 ZINC000536173632   -0.1300
8      C8      0.7678   -4.8396   -1.2630 C.ar     1 ZINC000536173632   -0.0700
9      C9      1.3342   -4.0757   -2.2683 C.ar     1 ZINC000536173632   -0.0800
10     C10     2.0083   -4.7497   -3.4356 C.3      1 ZINC000536173632   -0.1000
11     C11     0.9994   -4.9873   -4.5295 C.2      1 ZINC000536173632    0.5200
12     O12    -0.1535   -4.6433   -4.3764 O.2      1 ZINC000536173632   -0.5200
13     N13     1.3783   -5.5822   -5.6780 N.am     1 ZINC000536173632   -0.6200
14     C14     2.7699   -6.0139   -5.8843 C.3      1 ZINC000536173632    0.0700
15     C15     3.2515   -5.4653   -7.2323 C.3      1 ZINC000536173632    0.0500
16     O16     2.3162   -5.8300   -8.2501 O.3      1 ZINC000536173632   -0.3700
17     C17     1.0090   -5.2806   -8.0678 C.3      1 ZINC000536173632    0.1200
18     H18     1.0747   -4.1938   -8.0164 H        1 ZINC000536173632    0.0800
19     C19     0.1301   -5.6777   -9.2258 C.ar     1 ZINC000536173632   -0.0900
20     C20     0.2094   -6.9551   -9.7473 C.ar     1 ZINC000536173632   -0.0600
21     C21    -0.5969   -7.3194  -10.8097 C.ar     1 ZINC000536173632   -0.1200
22     C22    -1.4826   -6.4062  -11.3499 C.ar     1 ZINC000536173632   -0.0700
23     C23    -1.5627   -5.1286  -10.8276 C.ar     1 ZINC000536173632   -0.1800
24     C24    -2.5281   -4.1327  -11.4169 C.3      1 ZINC000536173632    0.5100
25     F25    -3.2265   -4.7287  -12.4724 F        1 ZINC000536173632   -0.1800
26     F26    -3.4329   -3.7215  -10.4323 F        1 ZINC000536173632   -0.1800
27     F27    -1.8211   -3.0234  -11.8930 F        1 ZINC000536173632   -0.1800
28     C28    -0.7597   -4.7658   -9.7628 C.ar     1 ZINC000536173632   -0.0500
29     C29     0.4113   -5.8248   -6.7603 C.3      1 ZINC000536173632    0.0900
30     C30     1.2781   -2.6989   -2.2073 C.ar     1 ZINC000536173632   -0.0400
31     H31     1.0050    1.8251    0.0023 H        1 ZINC000536173632    0.0600
32     H32    -0.5448    1.8089   -0.8731 H        1 ZINC000536173632    0.0600
33     H33    -0.5278    1.7993    0.9068 H        1 ZINC000536173632    0.1000
34     H34    -0.3951   -2.3774    0.7290 H        1 ZINC000536173632    0.1400
35     H35    -0.2931   -4.8312    0.5933 H        1 ZINC000536173632    0.1400
36     H36     0.8108   -5.9174   -1.3178 H        1 ZINC000536173632    0.1300
37     H37     2.8081   -4.1115   -3.8113 H        1 ZINC000536173632    0.1100
38     H38     2.4257   -5.7035   -3.1128 H        1 ZINC000536173632    0.1100
39     H39     3.3979   -5.6234   -5.0835 H        1 ZINC000536173632    0.1000
40     H40     2.8191   -7.1027   -5.8923 H        1 ZINC000536173632    0.0800
41     H41     3.3254   -4.3792   -7.1779 H        1 ZINC000536173632    0.0600
42     H42     4.2289   -5.8861   -7.4683 H        1 ZINC000536173632    0.1100
43     H43     0.9015   -7.6687   -9.3252 H        1 ZINC000536173632    0.1400
44     H44    -0.5344   -8.3174  -11.2177 H        1 ZINC000536173632    0.1400
45     H45    -2.1120   -6.6905  -12.1803 H        1 ZINC000536173632    0.1400
46     H46    -0.8222   -3.7678   -9.3547 H        1 ZINC000536173632    0.1400
47     H47     0.2236   -6.8939   -6.8595 H        1 ZINC000536173632    0.0800
48     H48    -0.5220   -5.3067   -6.5397 H        1 ZINC000536173632    0.1100
49     H49     1.7202   -2.1039   -2.9927 H        1 ZINC000536173632    0.1400
@<TRIPOS>BOND
1     1     2     1
2     1     31    1
3     1     32    1
4     1     33    1
5     2     3     1
6     3     4     2
7     3     5     1
8     5     30    ar
9     5     6     ar
10    6     7     ar
11    6     34    1
12    7     8     ar
13    7     35    1
14    8     9     ar
15    8     36    1
16    9     10    1
17    9     30    ar
18    10    11    1
19    10    37    1
20    10    38    1
21    11    12    2
22    11    13    am
23    13    29    1
24    13    14    1
25    14    15    1
26    14    39    1
27    14    40    1
28    15    16    1
29    15    41    1
30    15    42    1
31    16    17    1
32    17    18    1
33    17    19    1
34    17    29    1
35    19    28    ar
36    19    20    ar
37    20    21    ar
38    20    43    1
39    21    22    ar
40    21    44    1
41    22    23    ar
42    22    45    1
43    23    24    1
44    23    28    ar
45    24    25    1
46    24    26    1
47    24    27    1
48    28    46    1
49    29    47    1
50    29    48    1
51    30    49    1
@<TRIPOS>SUBSTRUCTURE
1   ZINC000536173632 1     RESIDUE    1   A     ZIN   1
@<TRIPOS>MOLECULE
ZINC000053543817
55	56	1	0	0
SMALL
USER_CHARGES
@<TRIPOS>ATOM
1      C1     -0.0184    1.5028    0.0103 C.3      1 ZINC000053543817   -0.0700
2      C2      0.0021   -0.0041    0.0020 C.2      1 ZINC000053543817   -0.0200
3      C3     -1.0808   -0.8064    0.0026 C.2      1 ZINC000053543817   -0.1800
4      C4     -0.6021   -2.1289   -0.0071 C.2      1 ZINC000053543817   -0.1900
5      C5      0.7452   -2.0645   -0.0140 C.2      1 ZINC000053543817    0.0000
6      C6      1.6458   -3.2756   -0.0267 C.3      1 ZINC000053543817   -0.0300
7      C7      0.8147   -4.4933   -0.4481 C.3      1 ZINC000053543817   -0.0500
8      C8      0.4445   -4.3705   -1.9276 C.3      1 ZINC000053543817   -0.1500
9      C9      1.6325   -5.7682   -0.2314 C.3      1 ZINC000053543817   -0.1400
10     C10    -0.4627   -4.5578    0.3937 C.3      1 ZINC000053543817   -0.1200
11     C11    -1.3965   -3.4088   -0.0080 C.3      1 ZINC000053543817    0.2200
12     H12    -1.7964   -3.5924   -1.0052 H        1 ZINC000053543817    0.1000
13     N13    -2.4968   -3.3079    0.9539 N.am     1 ZINC000053543817   -0.7100
14     C14    -3.6697   -2.7586    0.5810 C.2      1 ZINC000053543817    0.5100
15     O15    -3.8142   -2.3478   -0.5509 O.2      1 ZINC000053543817   -0.5300
16     C16    -4.8015   -2.6548    1.5706 C.3      1 ZINC000053543817    0.1400
17     H17    -4.4863   -2.0504    2.4211 H        1 ZINC000053543817    0.1200
18     C18    -5.1861   -4.0544    2.0542 C.3      1 ZINC000053543817   -0.1600
19     N19    -5.9573   -2.0260    0.9263 N.am     1 ZINC000053543817   -0.7000
20     C20    -6.8733   -1.3761    1.6714 C.2      1 ZINC000053543817    0.6600
21     O21    -6.7405   -1.3118    2.8775 O.2      1 ZINC000053543817   -0.5700
22     O22    -7.9354   -0.7983    1.0793 O.3      1 ZINC000053543817   -0.3600
23     C23    -8.8815   -0.1156    1.9437 C.3      1 ZINC000053543817    0.1400
24     C24    -8.1665    1.0097    2.6942 C.3      1 ZINC000053543817   -0.1800
25     C25   -10.0121    0.4734    1.0978 C.3      1 ZINC000053543817   -0.1400
26     C26    -9.4628   -1.1108    2.9501 C.3      1 ZINC000053543817   -0.1800
27     O27     1.1042   -0.7752   -0.0131 O.3      1 ZINC000053543817   -0.1700
28     H28     1.0042    1.8801    0.0026 H        1 ZINC000053543817    0.0800
29     H29    -0.5455    1.8639   -0.8728 H        1 ZINC000053543817    0.0800
30     H30    -0.5286    1.8543    0.9071 H        1 ZINC000053543817    0.0800
31     H31    -2.1147   -0.4945    0.0096 H        1 ZINC000053543817    0.1400
32     H32     2.4570   -3.1215   -0.7383 H        1 ZINC000053543817    0.0900
33     H33     2.0549   -3.4384    0.9704 H        1 ZINC000053543817    0.0900
34     H34     1.3537   -4.3259   -2.5271 H        1 ZINC000053543817    0.0600
35     H35    -0.1463   -5.2361   -2.2273 H        1 ZINC000053543817    0.0600
36     H36    -0.1376   -3.4621   -2.0822 H        1 ZINC000053543817    0.0600
37     H37     1.8968   -5.8556    0.8224 H        1 ZINC000053543817    0.0600
38     H38     1.0419   -6.6340   -0.5309 H        1 ZINC000053543817    0.0600
39     H39     2.5414   -5.7232   -0.8315 H        1 ZINC000053543817    0.0600
40     H40    -0.9637   -5.5104    0.2217 H        1 ZINC000053543817    0.0800
41     H41    -0.2072   -4.4667    1.4494 H        1 ZINC000053543817    0.0700
42     H42    -2.3812   -3.6365    1.8592 H        1 ZINC000053543817    0.4000
43     H43    -4.3262   -4.5223    2.5335 H        1 ZINC000053543817    0.0800
44     H44    -6.0048   -3.9794    2.7699 H        1 ZINC000053543817    0.0800
45     H45    -5.5014   -4.6588    1.2036 H        1 ZINC000053543817    0.0700
46     H46    -6.0633   -2.0773   -0.0365 H        1 ZINC000053543817    0.4200
47     H47    -7.7524    1.7187    1.9773 H        1 ZINC000053543817    0.0600
48     H48    -8.8767    1.5222    3.3432 H        1 ZINC000053543817    0.0700
49     H49    -7.3610    0.5900    3.2969 H        1 ZINC000053543817    0.0900
50     H50   -10.5215   -0.3283    0.5632 H        1 ZINC000053543817    0.0700
51     H51   -10.7223    0.9859    1.7468 H        1 ZINC000053543817    0.0800
52     H52    -9.5980    1.1824    0.3809 H        1 ZINC000053543817    0.0700
53     H53    -8.6573   -1.5305    3.5527 H        1 ZINC000053543817    0.0900
54     H54   -10.1730   -0.5984    3.5990 H        1 ZINC000053543817    0.0700
55     H55    -9.9721   -1.9125    2.4154 H        1 ZINC000053543817    0.0600
@<TRIPOS>BOND
1     1     2     1
2     1     28    1
3     1     29    1
4     1     30    1
5     2     27    1
6     2     3     2
7     3     4     1
8     3     31    1
9     4     11    1
10    4     5     2
11    5     6     1
12    5     27    1
13    6     7     1
14    6     32    1
15    6     33    1
16    7     8     1
17    7     9     1
18    7     10    1
19    8     34    1
20    8     35    1
21    8     36    1
22    9     37    1
23    9     38    1
24    9     39    1
25    10    11    1
26    10    40    1
27    10    41    1
28    11    12    1
29    11    13    1
30    13    14    am
31    13    42    1
32    14    15    2
33    14    16    1
34    16    17    1
35    16    18    1
36    16    19    1
37    18    43    1
38    18    44    1
39    18    45    1
40    19    20    am
41    19    46    1
42    20    21    2
43    20    22    1
44    22    23    1
45    23    24    1
46    23    25    1
47    23    26    1
48    24    47    1
49    24    48    1
50    24    49    1
51    25    50    1
52    25    51    1
53    25    52    1
54    26    53    1
55    26    54    1
56    26    55    1
@<TRIPOS>SUBSTRUCTURE
1   ZINC000053543817 1     RESIDUE    1   A     ZIN   1
@<TRIPOS>MOLECULE
ZINC000015179664
44	45	1	0	0
SMALL
USER_CHARGES
@<TRIPOS>ATOM
1      C1      0.1415    1.3333   -0.4494 C.3      1 ZINC000015179664   -0.1600
2      C2     -0.0226   -0.1474   -0.1006 C.3      1 ZINC000015179664    0.1800
3      H3      0.5339   -0.3701    0.8097 H        1 ZINC000015179664    0.1200
4      C4      0.5058   -0.9915   -1.2317 C.ar     1 ZINC000015179664   -0.1000
5      C5     -0.1125   -0.9566   -2.4673 C.ar     1 ZINC000015179664   -0.0700
6      C6      0.3724   -1.7310   -3.5050 C.ar     1 ZINC000015179664   -0.1200
7      C7      1.4756   -2.5397   -3.3068 C.ar     1 ZINC000015179664   -0.0500
8      C8      2.0947   -2.5738   -2.0711 C.ar     1 ZINC000015179664   -0.0400
9      N9      3.2759   -3.4402   -1.8587 N.pl3    1 ZINC000015179664    0.0300
10     O10     3.7025   -4.1230   -2.7726 O.2      1 ZINC000015179664   -0.1600
11     O11     3.8212   -3.4702   -0.7700 O.2      1 ZINC000015179664   -0.1500
12     C12     1.6126   -1.7964   -1.0349 C.ar     1 ZINC000015179664   -0.0400
13     N13    -1.4416   -0.4452    0.1093 N.am     1 ZINC000015179664   -0.6100
14     C14    -2.4222   -0.1055   -0.9248 C.3      1 ZINC000015179664    0.0600
15     C15    -1.8449   -1.0318    1.2537 C.2      1 ZINC000015179664    0.5200
16     O16    -1.0331   -1.3130    2.1098 O.2      1 ZINC000015179664   -0.5200
17     C17    -3.3045   -1.3382    1.4697 C.3      1 ZINC000015179664   -0.1500
18     C18    -3.4903   -1.9974    2.8378 C.3      1 ZINC000015179664    0.1300
19     N19    -4.9092   -2.2953    3.0478 N.am     1 ZINC000015179664   -0.7300
20     C20    -5.3125   -2.8818    4.1922 C.2      1 ZINC000015179664    0.5800
21     O21    -4.4984   -3.1639    5.0508 O.2      1 ZINC000015179664   -0.5300
22     C22    -6.7382   -3.1811    4.4031 C.2      1 ZINC000015179664   -0.1500
23     C23    -7.7062   -2.9018    3.4895 C.2      1 ZINC000015179664   -0.2200
24     S24    -9.2375   -3.3824    4.0633 S.3      1 ZINC000015179664    0.1900
25     C25    -8.5686   -3.9768    5.5731 C.2      1 ZINC000015179664   -0.2300
26     C26    -7.2520   -3.8071    5.5990 C.2      1 ZINC000015179664   -0.0900
27     H27     1.1973    1.5549   -0.6056 H        1 ZINC000015179664    0.0800
28     H28    -0.4150    1.5560   -1.3598 H        1 ZINC000015179664    0.0600
29     H29    -0.2407    1.9438    0.3687 H        1 ZINC000015179664    0.0700
30     H30    -0.9745   -0.3248   -2.6222 H        1 ZINC000015179664    0.1500
31     H31    -0.1112   -1.7044   -4.4703 H        1 ZINC000015179664    0.1500
32     H32     1.8539   -3.1451   -4.1172 H        1 ZINC000015179664    0.1600
33     H33     2.0961   -1.8230   -0.0696 H        1 ZINC000015179664    0.1600
34     H34    -2.5035   -0.9298   -1.6332 H        1 ZINC000015179664    0.0600
35     H35    -3.3925    0.0721   -0.4610 H        1 ZINC000015179664    0.0800
36     H36    -2.1001    0.7941   -1.4494 H        1 ZINC000015179664    0.0800
37     H37    -3.8795   -0.4130    1.4311 H        1 ZINC000015179664    0.1000
38     H38    -3.6529   -2.0152    0.6898 H        1 ZINC000015179664    0.1000
39     H39    -2.9152   -2.9226    2.8764 H        1 ZINC000015179664    0.0800
40     H40    -3.1419   -1.3203    3.6177 H        1 ZINC000015179664    0.0800
41     H41    -5.5585   -2.0703    2.3631 H        1 ZINC000015179664    0.4000
42     H42    -7.5286   -2.4382    2.5303 H        1 ZINC000015179664    0.1700
43     H43    -9.1470   -4.4223    6.3689 H        1 ZINC000015179664    0.1700
44     H44    -6.6301   -4.1001    6.4319 H        1 ZINC000015179664    0.1600
@<TRIPOS>BOND
1     1     2     1
2     1     27    1
3     1     28    1
4     1     29    1
5     2     3     1
6     2     4     1
7     2     13    1
8     4     12    ar
9     4     5     ar
10    5     6     ar
11    5     30    1
12    6     7     ar
13    6     31    1
14    7     8     ar
15    7     32    1
16    8     9     1
17    8     12    ar
18    9     10    2
19    9     11    2
20    12    33    1
21    13    14    1
22    13    15    am
23    14    34    1
24    14    35    1
25    14    36    1
26    15    16    2
27    15    17    1
28    17    18    1
29    17    37    1
30    17    38    1
31    18    19    1
32    18    39    1
33    18    40    1
34    19    20    am
35    19    41    1
36    20    21    2
37    20    22    1
38    22    26    1
39    22    23    2
40    23    24    1
41    23    42    1
42    24    25    1
43    25    26    2
44    25    43    1
45    26    44    1
@<TRIPOS>SUBSTRUCTURE
1   ZINC000015179664 1     RESIDUE    1   A     ZIN   1
@<TRIPOS>MOLECULE
ZINC000851838607
55	54	1	0	0
SMALL
USER_CHARGES
@<TRIPOS>ATOM
1      C1      0.9150   -2.9751    2.7001 C.3      1 ZINC000851838607    0.0300
2      O2      0.4645   -2.3584    1.4923 O.3      1 ZINC000851838607   -0.3800
3      C3      1.0140   -2.9343    0.3055 C.3      1 ZINC000851838607    0.0800
4      C4      0.4653   -2.1995   -0.9192 C.3      1 ZINC000851838607   -0.6000
5      H5     -0.6099   -2.3639   -0.9900 H        1 ZINC000851838607    0.1400
6      C6      0.7442   -0.7013   -0.7824 C.3      1 ZINC000851838607   -0.1400
7      S7      1.2734   -2.8309   -2.4155 S.o2     1 ZINC000851838607    2.6200
8      O8      0.6272   -2.3331   -3.5790 O.2      1 ZINC000851838607   -0.9400
9      O9      2.6868   -2.7730   -2.2810 O.2      1 ZINC000851838607   -0.9500
10     N10     0.9294   -4.4508   -2.4186 N.am     1 ZINC000851838607   -1.1200
11     C11    -0.4583   -4.9047   -2.5381 C.3      1 ZINC000851838607    0.1100
12     C12    -0.4796   -6.3966   -2.8767 C.3      1 ZINC000851838607   -0.1400
13     C13    -1.9289   -6.8707   -3.0015 C.3      1 ZINC000851838607    0.1700
14     H14    -2.4716   -6.6244   -2.0889 H        1 ZINC000851838607    0.1000
15     N15    -2.5638   -6.2054   -4.1419 N.am     1 ZINC000851838607   -0.7100
16     C16    -3.9022   -6.0495   -4.1715 C.2      1 ZINC000851838607    0.6500
17     O17    -4.5823   -6.4609   -3.2523 O.2      1 ZINC000851838607   -0.5600
18     O18    -4.4857   -5.4381   -5.2195 O.3      1 ZINC000851838607   -0.3700
19     C19    -5.9312   -5.3052   -5.1840 C.3      1 ZINC000851838607    0.1400
20     C20    -6.3385   -4.4912   -3.9542 C.3      1 ZINC000851838607   -0.1800
21     C21    -6.4089   -4.5906   -6.4497 C.3      1 ZINC000851838607   -0.1400
22     C22    -6.5694   -6.6938   -5.1107 C.3      1 ZINC000851838607   -0.1800
23     C23    -1.9533   -8.3853   -3.2164 C.3      1 ZINC000851838607   -0.1100
24     C24    -1.2902   -9.0801   -2.0254 C.3      1 ZINC000851838607   -0.1500
25     C25    -3.4027   -8.8594   -3.3412 C.3      1 ZINC000851838607   -0.1400
26     H26     0.6370   -4.0291    2.6955 H        1 ZINC000851838607    0.0400
27     H27     1.9990   -2.8857    2.7713 H        1 ZINC000851838607    0.0500
28     H28     0.4527   -2.4811    3.5547 H        1 ZINC000851838607    0.0900
29     H29     2.1000   -2.8439    0.3271 H        1 ZINC000851838607    0.0700
30     H30     0.7380   -3.9874    0.2513 H        1 ZINC000851838607    0.0600
31     H31     0.4355   -0.1896   -1.6940 H        1 ZINC000851838607    0.0700
32     H32     0.1853   -0.3036    0.0646 H        1 ZINC000851838607    0.0900
33     H33     1.8105   -0.5436   -0.6205 H        1 ZINC000851838607    0.0700
34     H34     1.6468   -5.0991   -2.3414 H        1 ZINC000851838607    0.4200
35     H35    -0.9774   -4.7389   -1.5941 H        1 ZINC000851838607    0.0700
36     H36    -0.9567   -4.3453   -3.3298 H        1 ZINC000851838607    0.0800
37     H37     0.0395   -6.5623   -3.8207 H        1 ZINC000851838607    0.0800
38     H38     0.0188   -6.9560   -2.0850 H        1 ZINC000851838607    0.1000
39     H39    -2.0210   -5.8770   -4.8756 H        1 ZINC000851838607    0.4100
40     H40    -5.8839   -3.5019   -4.0064 H        1 ZINC000851838607    0.0600
41     H41    -7.4236   -4.3915   -3.9276 H        1 ZINC000851838607    0.0700
42     H42    -5.9982   -5.0003   -3.0525 H        1 ZINC000851838607    0.0900
43     H43    -6.1187   -5.1705   -7.3259 H        1 ZINC000851838607    0.0700
44     H44    -7.4940   -4.4908   -6.4231 H        1 ZINC000851838607    0.0800
45     H45    -5.9543   -3.6013   -6.5019 H        1 ZINC000851838607    0.0700
46     H46    -6.2291   -7.2030   -4.2090 H        1 ZINC000851838607    0.0900
47     H47    -7.6545   -6.5941   -5.0841 H        1 ZINC000851838607    0.0700
48     H48    -6.2792   -7.2738   -5.9869 H        1 ZINC000851838607    0.0600
49     H49    -1.4106   -8.6316   -4.1290 H        1 ZINC000851838607    0.0700
50     H50    -1.8329   -8.8338   -1.1128 H        1 ZINC000851838607    0.0600
51     H51    -1.3077  -10.1592   -2.1785 H        1 ZINC000851838607    0.0600
52     H52    -0.2577   -8.7424   -1.9365 H        1 ZINC000851838607    0.0600
53     H53    -3.8751   -8.3644   -4.1896 H        1 ZINC000851838607    0.0500
54     H54    -3.4201   -9.9384   -3.4942 H        1 ZINC000851838607    0.0500
55     H55    -3.9454   -8.6131   -2.4285 H        1 ZINC000851838607    0.0700
@<TRIPOS>BOND
1     1     2     1
2     1     26    1
3     1     27    1
4     1     28    1
5     2     3     1
6     3     4     1
7     3     29    1
8     3     30    1
9     4     5     1
10    4     6     1
11    4     7     1
12    6     31    1
13    6     32    1
14    6     33    1
15    7     8     2
16    7     9     2
17    7     10    am
18    10    11    1
19    10    34    1
20    11    12    1
21    11    35    1
22    11    36    1
23    12    13    1
24    12    37    1
25    12    38    1
26    13    14    1
27    13    15    1
28    13    23    1
29    15    16    am
30    15    39    1
31    16    17    2
32    16    18    1
33    18    19    1
34    19    20    1
35    19    21    1
36    19    22    1
37    20    40    1
38    20    41    1
39    20    42    1
40    21    43    1
41    21    44    1
42    21    45    1
43    22    46    1
44    22    47    1
45    22    48    1
46    23    24    1
47    23    25    1
48    23    49    1
49    24    50    1
50    24    51    1
51    24    52    1
52    25    53    1
53    25    54    1
54    25    55    1
@<TRIPOS>SUBSTRUCTURE
1   ZINC000851838607 1     RESIDUE    1   A     ZIN   1
@<TRIPOS>MOLECULE
ZINC000588570917
51	52	1	0	0
SMALL
USER_CHARGES
@<TRIPOS>ATOM
1      C1     -3.3354   -4.3873   -1.8067 C.3      1 ZINC000588570917   -0.1300
2      C2     -2.1225   -3.7768   -1.1532 C.2      1 ZINC000588570917   -0.0500
3      C3     -2.2109   -2.5853   -0.5685 C.2      1 ZINC000588570917   -0.2000
4      C4     -0.9980   -1.9747    0.0850 C.3      1 ZINC000588570917   -0.0900
5      C5     -0.3066   -1.0326   -0.9025 C.3      1 ZINC000588570917   -0.1500
6      C6     -3.4924   -1.8638   -0.5597 C.2      1 ZINC000588570917    0.5600
7      O7     -4.4713   -2.3566   -1.0871 O.2      1 ZINC000588570917   -0.5100
8      N8     -3.5820   -0.6566    0.0327 N.am     1 ZINC000588570917   -0.6800
9      C9     -4.7729    0.0724   -0.0422 C.ar     1 ZINC000588570917    0.2100
10     C10    -4.7363    1.4576   -0.1366 C.ar     1 ZINC000588570917   -0.1700
11     C11    -5.9144    2.1745   -0.2110 C.ar     1 ZINC000588570917    0.0000
12     C12    -7.1295    1.5147   -0.1915 C.ar     1 ZINC000588570917   -0.7000
13     S13    -8.6302    2.4332   -0.2866 S.o2     1 ZINC000588570917    2.6900
14     O14    -9.6379    1.6166    0.2939 O.2      1 ZINC000588570917   -0.9500
15     O15    -8.3291    3.7427    0.1756 O.2      1 ZINC000588570917   -0.9500
16     N16    -9.0141    2.5803   -1.8908 N.am     1 ZINC000588570917   -1.0000
17     C17    -8.5240    3.7175   -2.6857 C.3      1 ZINC000588570917    0.0900
18     C18    -7.8796    3.1712   -3.9649 C.3      1 ZINC000588570917    0.0700
19     H19    -6.9708    2.6258   -3.7105 H        1 ZINC000588570917    0.0700
20     C20    -7.5339    4.3325   -4.8991 C.3      1 ZINC000588570917   -0.1500
21     O21    -8.7986    2.2907   -4.6159 O.3      1 ZINC000588570917   -0.3700
22     C22    -9.1456    1.1354   -3.8486 C.3      1 ZINC000588570917    0.0800
23     H23    -9.8111    0.4981   -4.4309 H        1 ZINC000588570917    0.1200
24     C24    -7.8766    0.3587   -3.4920 C.3      1 ZINC000588570917   -0.1900
25     C25    -9.8502    1.5745   -2.5649 C.3      1 ZINC000588570917    0.0900
26     C26    -7.1695    0.1356   -0.0981 C.ar     1 ZINC000588570917    0.0000
27     C27    -5.9950   -0.5876   -0.0283 C.ar     1 ZINC000588570917   -0.1400
28     H28    -3.0714   -5.3570   -2.2286 H        1 ZINC000588570917    0.0600
29     H29    -4.1222   -4.5165   -1.0635 H        1 ZINC000588570917    0.0800
30     H30    -3.6900   -3.7300   -2.6007 H        1 ZINC000588570917    0.0800
31     H31    -1.1814   -4.3066   -1.1597 H        1 ZINC000588570917    0.1300
32     H32    -1.3045   -1.4142    0.9681 H        1 ZINC000588570917    0.0700
33     H33    -0.3067   -2.7649    0.3780 H        1 ZINC000588570917    0.0800
34     H34    -0.9979   -0.2424   -1.1955 H        1 ZINC000588570917    0.0500
35     H35     0.5707   -0.5909   -0.4299 H        1 ZINC000588570917    0.0600
36     H36    -0.0001   -1.5931   -1.7857 H        1 ZINC000588570917    0.0600
37     H37    -2.8204   -0.2934    0.5111 H        1 ZINC000588570917    0.4100
38     H38    -3.7876    1.9736   -0.1515 H        1 ZINC000588570917    0.1400
39     H39    -5.8866    3.2517   -0.2841 H        1 ZINC000588570917    0.1400
40     H40    -9.3573    4.3707   -2.9446 H        1 ZINC000588570917    0.0900
41     H41    -7.7843    4.2753   -2.1114 H        1 ZINC000588570917    0.1000
42     H42    -6.8363    5.0051   -4.4000 H        1 ZINC000588570917    0.0700
43     H43    -7.0757    3.9434   -5.8084 H        1 ZINC000588570917    0.0700
44     H44    -8.4433    4.8765   -5.1546 H        1 ZINC000588570917    0.0700
45     H45    -7.2125    0.9961   -2.9082 H        1 ZINC000588570917    0.0600
46     H46    -8.1420   -0.5219   -2.9070 H        1 ZINC000588570917    0.0700
47     H47    -7.3713    0.0486   -4.4066 H        1 ZINC000588570917    0.0700
48     H48    -9.9912    0.7140   -1.9108 H        1 ZINC000588570917    0.1000
49     H49   -10.8178    2.0132   -2.8088 H        1 ZINC000588570917    0.0900
50     H50    -8.1201   -0.3767   -0.0831 H        1 ZINC000588570917    0.1400
51     H51    -6.0269   -1.6647    0.0443 H        1 ZINC000588570917    0.1500
@<TRIPOS>BOND
1     1     2     1
2     1     28    1
3     1     29    1
4     1     30    1
5     2     3     2
6     2     31    1
7     3     4     1
8     3     6     1
9     4     5     1
10    4     32    1
11    4     33    1
12    5     34    1
13    5     35    1
14    5     36    1
15    6     7     2
16    6     8     am
17    8     9     1
18    8     37    1
19    9     27    ar
20    9     10    ar
21    10    11    ar
22    10    38    1
23    11    12    ar
24    11    39    1
25    12    13    1
26    12    26    ar
27    13    14    2
28    13    15    2
29    13    16    am
30    16    25    1
31    16    17    1
32    17    18    1
33    17    40    1
34    17    41    1
35    18    19    1
36    18    20    1
37    18    21    1
38    20    42    1
39    20    43    1
40    20    44    1
41    21    22    1
42    22    23    1
43    22    24    1
44    22    25    1
45    24    45    1
46    24    46    1
47    24    47    1
48    25    48    1
49    25    49    1
50    26    27    ar
51    26    50    1
52    27    51    1
@<TRIPOS>SUBSTRUCTURE
1   ZINC000588570917 1     RESIDUE    1   A     ZIN   1
@<TRIPOS>MOLECULE
ZINC001300804061
57	60	1	0	0
SMALL
USER_CHARGES
@<TRIPOS>ATOM
1      C1      1.2172    1.3662   -0.4085 C.3      1 ZINC001300804061    0.0300
2      O2      0.5627    0.1128   -0.2016 O.3      1 ZINC001300804061   -0.3800
3      C3      0.8734   -0.8747   -1.1866 C.3      1 ZINC001300804061    0.1000
4      H4      1.8810   -0.7055   -1.5664 H        1 ZINC001300804061    0.0700
5      C5     -0.1294   -0.7803   -2.3387 C.3      1 ZINC001300804061    0.0500
6      N6      0.1766   -1.8087   -3.3413 N.3      1 ZINC001300804061   -0.4600
7      C7     -0.6296   -1.6684   -4.4581 C.2      1 ZINC001300804061    0.3600
8      N8     -1.8853   -1.2840   -4.4684 N.2      1 ZINC001300804061   -0.3000
9      N9     -2.3318   -1.2620   -5.6732 N.2      1 ZINC001300804061   -0.2500
10     C10    -1.3858   -1.6320   -6.5084 C.2      1 ZINC001300804061    0.2600
11     C11    -1.5015   -1.7361   -7.9715 C.2      1 ZINC001300804061    0.0400
12     C12    -2.4938   -1.1996   -8.7358 C.2      1 ZINC001300804061   -0.1300
13     C13    -2.2074   -1.5432  -10.0712 C.2      1 ZINC001300804061   -0.2100
14     C14    -1.0684   -2.2638  -10.0588 C.2      1 ZINC001300804061    0.0100
15     C15    -0.3838   -2.8447  -11.2692 C.3      1 ZINC001300804061   -0.0800
16     O16    -0.6414   -2.3737   -8.7900 O.3      1 ZINC001300804061   -0.1700
17     N17    -0.2645   -1.8983   -5.7541 N.pl3    1 ZINC001300804061   -0.4600
18     C18     1.0440   -2.3434   -6.2397 C.3      1 ZINC001300804061    0.1200
19     C19     1.8672   -1.1289   -6.6735 C.3      1 ZINC001300804061   -0.1000
20     H20     1.3033   -0.5530   -7.4074 H        1 ZINC001300804061    0.0900
21     C21     3.1767   -1.6014   -7.2981 C.3      1 ZINC001300804061   -0.1200
22     C22     3.8989   -0.4428   -7.9794 C.3      1 ZINC001300804061   -0.1200
23     C23     4.4466    0.5235   -6.9258 C.3      1 ZINC001300804061   -0.0800
24     S24     3.0531    1.2343   -6.0005 S.3      1 ZINC001300804061   -0.2600
25     C25     2.1592   -0.2509   -5.4538 C.3      1 ZINC001300804061   -0.0700
26     C26     0.0573   -3.1571   -2.7722 C.3      1 ZINC001300804061    0.0600
27     C27     1.0657   -3.3225   -1.6330 C.3      1 ZINC001300804061   -0.1100
28     C28     0.7916   -2.2681   -0.5571 C.3      1 ZINC001300804061   -0.0900
29     H29    -0.2046   -2.4215   -0.1421 H        1 ZINC001300804061    0.0800
30     C30     1.8337   -2.3909    0.5564 C.3      1 ZINC001300804061   -0.1400
31     H31     2.2972    1.2199   -0.3878 H        1 ZINC001300804061    0.0400
32     H32     0.9242    1.7737   -1.3760 H        1 ZINC001300804061    0.0400
33     H33     0.9295    2.0609    0.3806 H        1 ZINC001300804061    0.0900
34     H34    -1.1382   -0.9352   -1.9559 H        1 ZINC001300804061    0.0700
35     H35    -0.0630    0.2059   -2.7982 H        1 ZINC001300804061    0.0800
36     H36    -3.3370   -0.6229   -8.3853 H        1 ZINC001300804061    0.1600
37     H37    -2.7905   -1.2790  -10.9410 H        1 ZINC001300804061    0.1600
38     H38     0.3287   -2.1213  -11.6657 H        1 ZINC001300804061    0.0900
39     H39     0.1431   -3.7560  -10.9862 H        1 ZINC001300804061    0.0800
40     H40    -1.1279   -3.0769  -12.0311 H        1 ZINC001300804061    0.0900
41     H41     1.5673   -2.8709   -5.4422 H        1 ZINC001300804061    0.1100
42     H42     0.9078   -3.0124   -7.0895 H        1 ZINC001300804061    0.1000
43     H43     3.8170   -2.0153   -6.5192 H        1 ZINC001300804061    0.0700
44     H44     2.9639   -2.3752   -8.0357 H        1 ZINC001300804061    0.0800
45     H45     4.7233   -0.8316   -8.5772 H        1 ZINC001300804061    0.0800
46     H46     3.2016    0.0868   -8.6285 H        1 ZINC001300804061    0.0800
47     H47     5.1023   -0.0153   -6.2418 H        1 ZINC001300804061    0.0800
48     H48     5.0040    1.3214   -7.4166 H        1 ZINC001300804061    0.1100
49     H49     1.2204    0.0406   -4.9829 H        1 ZINC001300804061    0.1000
50     H50     2.7712   -0.8039   -4.7413 H        1 ZINC001300804061    0.0900
51     H51    -0.9523   -3.3009   -2.3873 H        1 ZINC001300804061    0.0600
52     H52     0.2595   -3.8973   -3.5465 H        1 ZINC001300804061    0.0800
53     H53     0.9662   -4.3181   -1.2006 H        1 ZINC001300804061    0.0800
54     H54     2.0764   -3.1926   -2.0199 H        1 ZINC001300804061    0.0800
55     H55     2.8293   -2.2351    0.1410 H        1 ZINC001300804061    0.0500
56     H56     1.6378   -1.6400    1.3218 H        1 ZINC001300804061    0.0600
57     H57     1.7764   -3.3850    0.9997 H        1 ZINC001300804061    0.0600
@<TRIPOS>BOND
1     1     2     1
2     1     31    1
3     1     32    1
4     1     33    1
5     2     3     1
6     3     4     1
7     3     28    1
8     3     5     1
9     5     6     1
10    5     34    1
11    5     35    1
12    6     7     1
13    6     26    1
14    7     17    1
15    7     8     2
16    8     9     1
17    9     10    2
18    10    11    1
19    10    17    1
20    11    16    1
21    11    12    2
22    12    13    1
23    12    36    1
24    13    14    2
25    13    37    1
26    14    15    1
27    14    16    1
28    15    38    1
29    15    39    1
30    15    40    1
31    17    18    1
32    18    19    1
33    18    41    1
34    18    42    1
35    19    20    1
36    19    25    1
37    19    21    1
38    21    22    1
39    21    43    1
40    21    44    1
41    22    23    1
42    22    45    1
43    22    46    1
44    23    24    1
45    23    47    1
46    23    48    1
47    24    25    1
48    25    49    1
49    25    50    1
50    26    27    1
51    26    51    1
52    26    52    1
53    27    28    1
54    27    53    1
55    27    54    1
56    28    29    1
57    28    30    1
58    30    55    1
59    30    56    1
60    30    57    1
@<TRIPOS>SUBSTRUCTURE
1   ZINC001300804061 1     RESIDUE    1   A     ZIN   1
@<TRIPOS>MOLECULE
ZINC001179023006
53	56	1	0	0
SMALL
USER_CHARGES
@<TRIPOS>ATOM
1      C1     -0.2798    3.3636    1.6724 C.3      1 ZINC001179023006   -0.1500
2      C2     -0.6210    1.9022    1.3748 C.3      1 ZINC001179023006   -0.1100
3      C3     -0.0999    1.5296   -0.0146 C.3      1 ZINC001179023006   -0.1100
4      C4      1.3710    1.8109   -0.1828 C.2      1 ZINC001179023006    0.5400
5      O5      1.7366    2.7218   -0.8952 O.2      1 ZINC001179023006   -0.5400
6      N6      2.2803    1.0504    0.4586 N.am     1 ZINC001179023006   -0.5900
7      C7      1.8536    0.0054    1.3989 C.3      1 ZINC001179023006    0.1000
8      C8      2.5646    0.2151    2.7338 C.3      1 ZINC001179023006   -0.1200
9      C9      4.0817    0.2561    2.4995 C.3      1 ZINC001179023006   -0.0500
10     C10     4.4044    1.4512    1.5904 C.3      1 ZINC001179023006   -0.1100
11     C11     3.7182    1.2537    0.2360 C.3      1 ZINC001179023006    0.0900
12     C12     4.7855    0.4452    3.8340 C.3      1 ZINC001179023006   -0.0800
13     C13     4.4196   -0.6310    4.8098 C.ar     1 ZINC001179023006   -0.0700
14     C14     3.5802   -0.3086    5.8714 C.ar     1 ZINC001179023006   -0.1100
15     C15     3.1742   -1.2918    6.7521 C.ar     1 ZINC001179023006   -0.1100
16     C16     3.5998   -2.5961    6.5843 C.ar     1 ZINC001179023006   -0.1200
17     C17     4.4460   -2.9110    5.5359 C.ar     1 ZINC001179023006   -0.1000
18     C18     4.8532   -1.9155    4.6656 C.ar     1 ZINC001179023006   -0.1100
19     C19     5.7977   -2.2474    3.5386 C.3      1 ZINC001179023006    0.1400
20     N20     5.1794   -2.0427    2.2475 N.am     1 ZINC001179023006   -0.7000
21     C21     4.5069   -1.0061    1.8179 C.2      1 ZINC001179023006    0.5200
22     O22     4.1658   -1.0822    0.6566 O.2      1 ZINC001179023006   -0.5500
23     C23    -0.9662    2.0723   -1.1635 C.3      1 ZINC001179023006   -0.1200
24     C24    -0.7362    0.7226   -1.8674 C.3      1 ZINC001179023006   -0.1400
25     C25    -0.5135    0.1202   -0.4701 C.3      1 ZINC001179023006   -0.1300
26     H26    -0.6170    3.6181    2.6772 H        1 ZINC001179023006    0.0600
27     H27     0.7987    3.5061    1.6041 H        1 ZINC001179023006    0.0500
28     H28    -0.7780    4.0079    0.9479 H        1 ZINC001179023006    0.0600
29     H29    -1.7023    1.7681    1.4053 H        1 ZINC001179023006    0.0700
30     H30    -0.1541    1.2606    2.1221 H        1 ZINC001179023006    0.0700
31     H31     0.7755    0.0658    1.5475 H        1 ZINC001179023006    0.0900
32     H32     2.1147   -0.9745    0.9992 H        1 ZINC001179023006    0.0800
33     H33     2.3226   -0.6053    3.4094 H        1 ZINC001179023006    0.0800
34     H34     2.2386    1.1575    3.1739 H        1 ZINC001179023006    0.0800
35     H35     5.4827    1.5181    1.4459 H        1 ZINC001179023006    0.0800
36     H36     4.0413    2.3694    2.0521 H        1 ZINC001179023006    0.0800
37     H37     4.1379    0.3798   -0.2622 H        1 ZINC001179023006    0.1200
38     H38     3.8706    2.1378   -0.3831 H        1 ZINC001179023006    0.0800
39     H39     5.8635    0.4278    3.6732 H        1 ZINC001179023006    0.0800
40     H40     4.5050    1.4128    4.2501 H        1 ZINC001179023006    0.0900
41     H41     3.2461    0.7095    6.0064 H        1 ZINC001179023006    0.1200
42     H42     2.5219   -1.0405    7.5753 H        1 ZINC001179023006    0.1200
43     H43     3.2732   -3.3656    7.2681 H        1 ZINC001179023006    0.1300
44     H44     4.7864   -3.9266    5.3981 H        1 ZINC001179023006    0.1300
45     H45     6.1029   -3.2902    3.6255 H        1 ZINC001179023006    0.0900
46     H46     6.6802   -1.6122    3.6152 H        1 ZINC001179023006    0.0800
47     H47     5.2760   -2.7720    1.6153 H        1 ZINC001179023006    0.4000
48     H48    -2.0047    2.2468   -0.8824 H        1 ZINC001179023006    0.0900
49     H49    -0.5196    2.9192   -1.6845 H        1 ZINC001179023006    0.0800
50     H50     0.1535    0.7060   -2.4969 H        1 ZINC001179023006    0.0800
51     H51    -1.6203    0.3355   -2.3739 H        1 ZINC001179023006    0.0700
52     H52     0.2980   -0.6066   -0.4323 H        1 ZINC001179023006    0.0700
53     H53    -1.4281   -0.2401    0.0009 H        1 ZINC001179023006    0.0900
@<TRIPOS>BOND
1     1     2     1
2     1     26    1
3     1     27    1
4     1     28    1
5     2     3     1
6     2     29    1
7     2     30    1
8     3     25    1
9     3     4     1
10    3     23    1
11    4     5     2
12    4     6     am
13    6     11    1
14    6     7     1
15    7     8     1
16    7     31    1
17    7     32    1
18    8     9     1
19    8     33    1
20    8     34    1
21    9     21    1
22    9     10    1
23    9     12    1
24    10    11    1
25    10    35    1
26    10    36    1
27    11    37    1
28    11    38    1
29    12    13    1
30    12    39    1
31    12    40    1
32    13    18    ar
33    13    14    ar
34    14    15    ar
35    14    41    1
36    15    16    ar
37    15    42    1
38    16    17    ar
39    16    43    1
40    17    18    ar
41    17    44    1
42    18    19    1
43    19    20    1
44    19    45    1
45    19    46    1
46    20    21    am
47    20    47    1
48    21    22    2
49    23    24    1
50    23    48    1
51    23    49    1
52    24    25    1
53    24    50    1
54    24    51    1
55    25    52    1
56    25    53    1
@<TRIPOS>SUBSTRUCTURE
1   ZINC001179023006 1     RESIDUE    1   A     ZIN   1
@<TRIPOS>MOLECULE
ZINC000859496582
53	54	1	0	0
SMALL
USER_CHARGES
@<TRIPOS>ATOM
1      C1     -2.6634    0.6097    1.3415 C.3      1 ZINC000859496582    0.0300
2      O2     -2.3010   -0.7827    1.1460 O.3      1 ZINC000859496582   -0.3600
3      C3     -1.6158   -1.3786    2.1345 C.2      1 ZINC000859496582    0.4600
4      O4     -1.3283   -0.7573    3.1301 O.2      1 ZINC000859496582   -0.5100
5      C5     -1.2050   -2.8225    2.0025 C.3      1 ZINC000859496582   -0.1100
6      C6     -0.4426   -3.2526    3.2574 C.3      1 ZINC000859496582   -0.1100
7      C7     -0.0256   -4.7186    3.1234 C.3      1 ZINC000859496582   -0.1200
8      C8      0.7368   -5.1487    4.3783 C.3      1 ZINC000859496582    0.0700
9      O9      1.1326   -6.5399    4.2511 O.3      1 ZINC000859496582   -0.3500
10     C10     1.8155   -7.0752    5.2752 C.2      1 ZINC000859496582    0.4700
11     O11     2.0740   -6.4036    6.2457 O.2      1 ZINC000859496582   -0.5000
12     C12     2.2598   -8.5140    5.2144 C.3      1 ZINC000859496582   -0.1000
13     H13     1.3878   -9.1601    5.1135 H        1 ZINC000859496582    0.1200
14     C14     3.0138   -8.8704    6.4976 C.3      1 ZINC000859496582   -0.1100
15     C15     3.4369  -10.3404    6.4512 C.3      1 ZINC000859496582   -0.1300
16     C16     4.3767  -10.5597    5.2614 C.3      1 ZINC000859496582    0.1100
17     N17     3.7125  -10.0841    4.0402 N.am     1 ZINC000859496582   -0.6100
18     C18     3.5884  -10.8905    2.9675 C.2      1 ZINC000859496582    0.5700
19     O19     4.0881  -11.9985    2.9790 O.2      1 ZINC000859496582   -0.5300
20     C20     2.8445  -10.4274    1.7767 C.ar     1 ZINC000859496582   -0.1400
21     C21     3.1414   -9.1906    1.2019 C.ar     1 ZINC000859496582   -0.0900
22     C22     2.4438   -8.7646    0.0906 C.ar     1 ZINC000859496582   -0.1200
23     C23     1.4514   -9.5602   -0.4540 C.ar     1 ZINC000859496582   -0.0600
24     C24     0.6932   -9.0882   -1.6678 C.3      1 ZINC000859496582   -0.1200
25     C25     1.1525  -10.7875    0.1106 C.ar     1 ZINC000859496582   -0.1200
26     C26     1.8462  -11.2276    1.2189 C.ar     1 ZINC000859496582   -0.0600
27     C27     3.1856   -8.7128    4.0102 C.3      1 ZINC000859496582    0.1100
28     H28    -1.7600    1.2054    1.4720 H        1 ZINC000859496582    0.0600
29     H29    -3.2123    0.9680    0.4706 H        1 ZINC000859496582    0.1000
30     H30    -3.2901    0.7009    2.2286 H        1 ZINC000859496582    0.0600
31     H31    -2.0930   -3.4437    1.8861 H        1 ZINC000859496582    0.1100
32     H32    -0.5629   -2.9393    1.1294 H        1 ZINC000859496582    0.1100
33     H33     0.4454   -2.6314    3.3738 H        1 ZINC000859496582    0.0800
34     H34    -1.0847   -3.1359    4.1305 H        1 ZINC000859496582    0.0800
35     H35    -0.9136   -5.3398    3.0070 H        1 ZINC000859496582    0.0800
36     H36     0.6165   -4.8353    2.2503 H        1 ZINC000859496582    0.0800
37     H37     1.6249   -4.5275    4.4947 H        1 ZINC000859496582    0.0700
38     H38     0.0947   -5.0319    5.2513 H        1 ZINC000859496582    0.0700
39     H39     3.8989   -8.2403    6.5857 H        1 ZINC000859496582    0.0800
40     H40     2.3646   -8.7064    7.3577 H        1 ZINC000859496582    0.0800
41     H41     3.9533  -10.5997    7.3754 H        1 ZINC000859496582    0.0900
42     H42     2.5541  -10.9697    6.3383 H        1 ZINC000859496582    0.0700
43     H43     5.2995  -10.0009    5.4169 H        1 ZINC000859496582    0.0700
44     H44     4.6021  -11.6218    5.1648 H        1 ZINC000859496582    0.1000
45     H45     3.9153   -8.5683    1.6265 H        1 ZINC000859496582    0.1300
46     H46     2.6725   -7.8078   -0.3551 H        1 ZINC000859496582    0.1300
47     H47     1.2052   -9.4242   -2.5694 H        1 ZINC000859496582    0.0800
48     H48    -0.3160   -9.4995   -1.6484 H        1 ZINC000859496582    0.0700
49     H49     0.6419   -7.9994   -1.6634 H        1 ZINC000859496582    0.0700
50     H50     0.3770  -11.4039   -0.3195 H        1 ZINC000859496582    0.1300
51     H51     1.6121  -12.1860    1.6585 H        1 ZINC000859496582    0.1300
52     H52     2.6257   -8.5566    3.0881 H        1 ZINC000859496582    0.1100
53     H53     4.0110   -8.0029    4.0637 H        1 ZINC000859496582    0.0800
@<TRIPOS>BOND
1     1     2     1
2     1     28    1
3     1     29    1
4     1     30    1
5     2     3     1
6     3     4     2
7     3     5     1
8     5     6     1
9     5     31    1
10    5     32    1
11    6     7     1
12    6     33    1
13    6     34    1
14    7     8     1
15    7     35    1
16    7     36    1
17    8     9     1
18    8     37    1
19    8     38    1
20    9     10    1
21    10    11    2
22    10    12    1
23    12    13    1
24    12    27    1
25    12    14    1
26    14    15    1
27    14    39    1
28    14    40    1
29    15    16    1
30    15    41    1
31    15    42    1
32    16    17    1
33    16    43    1
34    16    44    1
35    17    18    am
36    17    27    1
37    18    19    2
38    18    20    1
39    20    26    ar
40    20    21    ar
41    21    22    ar
42    21    45    1
43    22    23    ar
44    22    46    1
45    23    24    1
46    23    25    ar
47    24    47    1
48    24    48    1
49    24    49    1
50    25    26    ar
51    25    50    1
52    26    51    1
53    27    52    1
54    27    53    1
@<TRIPOS>SUBSTRUCTURE
1   ZINC000859496582 1     RESIDUE    1   A     ZIN   1
@<TRIPOS>MOLECULE
ZINC000646817380
54	56	1	0	0
SMALL
USER_CHARGES
@<TRIPOS>ATOM
1      C1      0.1747    3.7974   -4.2776 C.3      1 ZINC000646817380   -0.1500
2      C2      0.5277    2.3159   -4.1312 C.3      1 ZINC000646817380   -0.0100
3      C3      1.7566    2.1709   -3.2314 C.3      1 ZINC000646817380   -0.1500
4      C4     -0.6351    1.5808   -3.5158 C.2      1 ZINC000646817380   -0.0100
5      C5     -1.3219    0.5524   -4.0632 C.2      1 ZINC000646817380   -0.2200
6      C6     -2.3007    0.2345   -3.0840 C.2      1 ZINC000646817380    0.2400
7      N7     -3.2694   -0.7643   -3.1628 N.am     1 ZINC000646817380   -0.6100
8      C8     -3.3411   -1.5487   -4.2564 C.2      1 ZINC000646817380    0.5200
9      O9     -2.5623   -1.3852   -5.1726 O.2      1 ZINC000646817380   -0.4900
10     C10    -4.3794   -2.6193   -4.3409 C.2      1 ZINC000646817380    0.5300
11     O11    -5.1583   -2.7828   -3.4247 O.2      1 ZINC000646817380   -0.5100
12     N12    -4.4512   -3.4037   -5.4345 N.am     1 ZINC000646817380   -0.5800
13     C13    -3.5707   -3.3192   -6.6088 C.3      1 ZINC000646817380    0.1000
14     C14    -4.0423   -4.3918   -7.6132 C.3      1 ZINC000646817380   -0.1300
15     C15    -5.5141   -4.6409   -7.1901 C.3      1 ZINC000646817380   -0.1000
16     H16    -6.1766   -3.8891   -7.6192 H        1 ZINC000646817380    0.1000
17     C17    -5.9651   -6.0505   -7.5778 C.3      1 ZINC000646817380   -0.0700
18     H18    -5.8398   -6.2007   -8.6501 H        1 ZINC000646817380    0.0800
19     C19    -5.1468   -7.1004   -6.7980 C.3      1 ZINC000646817380   -0.1300
20     C20    -6.1680   -8.2221   -6.4850 C.3      1 ZINC000646817380   -0.1300
21     C21    -7.4629   -7.4295   -6.1782 C.3      1 ZINC000646817380   -0.1200
22     C22    -7.4381   -6.2594   -7.1849 C.3      1 ZINC000646817380   -0.0700
23     C23    -7.9903   -4.9921   -6.5291 C.3      1 ZINC000646817380   -0.1600
24     C24    -8.2666   -6.6141   -8.4213 C.3      1 ZINC000646817380   -0.1400
25     C25    -5.4217   -4.4926   -5.6486 C.3      1 ZINC000646817380    0.0900
26     N26    -2.1101    1.0668   -2.0939 N.2      1 ZINC000646817380   -0.3800
27     O27    -1.1867    1.8151   -2.3164 O.3      1 ZINC000646817380    0.1100
28     H28     1.0157    4.3290   -4.7227 H        1 ZINC000646817380    0.0700
29     H29    -0.7008    3.9007   -4.9186 H        1 ZINC000646817380    0.0600
30     H30    -0.0424    4.2179   -3.2956 H        1 ZINC000646817380    0.0600
31     H31     0.7448    1.8954   -5.1131 H        1 ZINC000646817380    0.1100
32     H32     1.5395    2.5914   -2.2494 H        1 ZINC000646817380    0.0600
33     H33     2.0081    1.1155   -3.1271 H        1 ZINC000646817380    0.0600
34     H34     2.5976    2.7026   -3.6765 H        1 ZINC000646817380    0.0700
35     H35    -1.1632    0.0821   -5.0224 H        1 ZINC000646817380    0.1900
36     H36    -3.8919   -0.8950   -2.4305 H        1 ZINC000646817380    0.4300
37     H37    -3.6477   -2.3298   -7.0596 H        1 ZINC000646817380    0.0800
38     H38    -2.5398   -3.5153   -6.3140 H        1 ZINC000646817380    0.0800
39     H39    -3.9934   -4.0123   -8.6339 H        1 ZINC000646817380    0.0900
40     H40    -3.4521   -5.3024   -7.5105 H        1 ZINC000646817380    0.0800
41     H41    -4.3342   -7.4853   -7.4142 H        1 ZINC000646817380    0.0700
42     H42    -4.7566   -6.6713   -5.8750 H        1 ZINC000646817380    0.0800
43     H43    -6.3075   -8.8700   -7.3504 H        1 ZINC000646817380    0.0700
44     H44    -5.8533   -8.7994   -5.6156 H        1 ZINC000646817380    0.0700
45     H45    -8.3407   -8.0547   -6.3422 H        1 ZINC000646817380    0.0700
46     H46    -7.4469   -7.0536   -5.1552 H        1 ZINC000646817380    0.0700
47     H47    -7.6535   -4.9426   -5.4936 H        1 ZINC000646817380    0.0700
48     H48    -7.6309   -4.1169   -7.0703 H        1 ZINC000646817380    0.0600
49     H49    -9.0797   -5.0141   -6.5563 H        1 ZINC000646817380    0.0500
50     H50    -9.3025   -6.7842   -8.1280 H        1 ZINC000646817380    0.0600
51     H51    -8.2217   -5.7928   -9.1365 H        1 ZINC000646817380    0.0500
52     H52    -7.8658   -7.5178   -8.8802 H        1 ZINC000646817380    0.0600
53     H53    -5.0652   -5.4194   -5.1991 H        1 ZINC000646817380    0.0900
54     H54    -6.3921   -4.2182   -5.2351 H        1 ZINC000646817380    0.1000
@<TRIPOS>BOND
1     1     2     1
2     1     28    1
3     1     29    1
4     1     30    1
5     2     3     1
6     2     4     1
7     2     31    1
8     3     32    1
9     3     33    1
10    3     34    1
11    4     27    1
12    4     5     2
13    5     6     1
14    5     35    1
15    6     7     1
16    6     26    2
17    7     8     am
18    7     36    1
19    8     9     2
20    8     10    1
21    10    11    2
22    10    12    am
23    12    25    1
24    12    13    1
25    13    14    1
26    13    37    1
27    13    38    1
28    14    15    1
29    14    39    1
30    14    40    1
31    15    16    1
32    15    17    1
33    15    25    1
34    17    18    1
35    17    22    1
36    17    19    1
37    19    20    1
38    19    41    1
39    19    42    1
40    20    21    1
41    20    43    1
42    20    44    1
43    21    22    1
44    21    45    1
45    21    46    1
46    22    23    1
47    22    24    1
48    23    47    1
49    23    48    1
50    23    49    1
51    24    50    1
52    24    51    1
53    24    52    1
54    25    53    1
55    25    54    1
56    26    27    1
@<TRIPOS>SUBSTRUCTURE
1   ZINC000646817380 1     RESIDUE    1   A     ZIN   1
@<TRIPOS>MOLECULE
ZINC001045438664
50	53	1	0	0
SMALL
USER_CHARGES
@<TRIPOS>ATOM
1      C1     -0.0184    1.5028    0.0103 C.3      1 ZINC001045438664   -0.1100
2      C2      0.0021   -0.0041    0.0020 C.ar     1 ZINC001045438664    0.2100
3      C3      0.0060   -0.6962   -1.1927 C.ar     1 ZINC001045438664   -0.3000
4      C4      0.0256   -2.0921   -1.1501 C.ar     1 ZINC001045438664    0.4500
5      N5      0.0308   -2.8320   -2.3213 N.pl3    1 ZINC001045438664   -0.7100
6      C6      0.0155   -2.1508   -3.6182 C.3      1 ZINC001045438664    0.1500
7      H7      0.5924   -1.2284   -3.5509 H        1 ZINC001045438664    0.0900
8      C8     -1.4279   -1.8224   -4.0048 C.3      1 ZINC001045438664   -0.1300
9      C9     -1.4439   -1.1109   -5.3592 C.3      1 ZINC001045438664   -0.1200
10     C10    -0.8262   -2.0225   -6.4214 C.3      1 ZINC001045438664   -0.1200
11     C11     0.6173   -2.3509   -6.0348 C.3      1 ZINC001045438664   -0.1300
12     C12     0.6332   -3.0624   -4.6804 C.3      1 ZINC001045438664    0.1400
13     H13     0.0563   -3.9847   -4.7477 H        1 ZINC001045438664    0.1000
14     N14     2.0153   -3.3768   -4.3102 N.am     1 ZINC001045438664   -0.7200
15     C15     2.5945   -4.5058   -4.7646 C.2      1 ZINC001045438664    0.5700
16     O16     1.9700   -5.2631   -5.4816 O.2      1 ZINC001045438664   -0.5200
17     C17     3.9892   -4.8231   -4.3910 C.ar     1 ZINC001045438664   -0.2500
18     C18     4.7243   -3.9682   -3.5620 C.ar     1 ZINC001045438664    0.1900
19     N19     5.9679   -4.2910   -3.2529 N.ar     1 ZINC001045438664   -0.5200
20     C20     6.5159   -5.3985   -3.7134 C.ar     1 ZINC001045438664    0.3200
21     N21     5.8597   -6.2315   -4.4972 N.ar     1 ZINC001045438664   -0.5200
22     C22     4.6098   -5.9898   -4.8517 C.ar     1 ZINC001045438664    0.2100
23     N23     0.0398   -2.6994    0.0327 N.ar     1 ZINC001045438664   -0.5800
24     C24     0.0354   -1.9986    1.1486 C.ar     1 ZINC001045438664    0.4000
25     C25     0.0524   -2.7241    2.4694 C.3      1 ZINC001045438664   -0.1100
26     C26     0.2502   -1.8853    3.7336 C.3      1 ZINC001045438664   -0.1500
27     C27    -1.1217   -2.4862    3.4212 C.3      1 ZINC001045438664   -0.1500
28     N28     0.0221   -0.6810    1.1418 N.ar     1 ZINC001045438664   -0.5600
29     H29     1.0042    1.8801    0.0026 H        1 ZINC001045438664    0.0800
30     H30    -0.5455    1.8639   -0.8728 H        1 ZINC001045438664    0.0800
31     H31    -0.5286    1.8543    0.9071 H        1 ZINC001045438664    0.0800
32     H32    -0.0062   -0.1714   -2.1365 H        1 ZINC001045438664    0.1400
33     H33     0.0444   -3.8012   -2.2826 H        1 ZINC001045438664    0.4100
34     H34    -2.0049   -2.7447   -4.0721 H        1 ZINC001045438664    0.0700
35     H35    -1.8680   -1.1729   -3.2480 H        1 ZINC001045438664    0.0700
36     H36    -2.4722   -0.8770   -5.6347 H        1 ZINC001045438664    0.0700
37     H37    -0.8669   -0.1886   -5.2919 H        1 ZINC001045438664    0.0700
38     H38    -1.4031   -2.9449   -6.4887 H        1 ZINC001045438664    0.0700
39     H39    -0.8375   -1.5157   -7.3864 H        1 ZINC001045438664    0.0700
40     H40     1.0573   -3.0004   -6.7916 H        1 ZINC001045438664    0.0800
41     H41     1.1942   -1.4286   -5.9675 H        1 ZINC001045438664    0.0700
42     H42     2.5136   -2.7725   -3.7380 H        1 ZINC001045438664    0.4000
43     H43     4.2825   -3.0592   -3.1812 H        1 ZINC001045438664    0.1700
44     H44     7.5347   -5.6305   -3.4402 H        1 ZINC001045438664    0.2100
45     H45     4.0789   -6.6769   -5.4939 H        1 ZINC001045438664    0.1800
46     H46     0.4925   -3.7211    2.4525 H        1 ZINC001045438664    0.1300
47     H47     0.8208   -2.3305    4.5487 H        1 ZINC001045438664    0.1000
48     H48     0.3681   -0.8088    3.6101 H        1 ZINC001045438664    0.1100
49     H49    -1.9064   -1.8050    3.0921 H        1 ZINC001045438664    0.1000
50     H50    -1.4537   -3.3267    4.0307 H        1 ZINC001045438664    0.1000
@<TRIPOS>BOND
1     1     2     1
2     1     29    1
3     1     30    1
4     1     31    1
5     2     28    ar
6     2     3     ar
7     3     4     ar
8     3     32    1
9     4     5     1
10    4     23    ar
11    5     6     1
12    5     33    1
13    6     7     1
14    6     12    1
15    6     8     1
16    8     9     1
17    8     34    1
18    8     35    1
19    9     10    1
20    9     36    1
21    9     37    1
22    10    11    1
23    10    38    1
24    10    39    1
25    11    12    1
26    11    40    1
27    11    41    1
28    12    13    1
29    12    14    1
30    14    15    am
31    14    42    1
32    15    16    2
33    15    17    1
34    17    22    ar
35    17    18    ar
36    18    19    ar
37    18    43    1
38    19    20    ar
39    20    21    ar
40    20    44    1
41    21    22    ar
42    22    45    1
43    23    24    ar
44    24    25    1
45    24    28    ar
46    25    27    1
47    25    26    1
48    25    46    1
49    26    27    1
50    26    47    1
51    26    48    1
52    27    49    1
53    27    50    1
@<TRIPOS>SUBSTRUCTURE
1   ZINC001045438664 1     RESIDUE    1   A     ZIN   1
@<TRIPOS>MOLECULE
ZINC000124554441
52	53	1	0	0
SMALL
USER_CHARGES
@<TRIPOS>ATOM
1      C1     -0.8732    1.8187   -0.6311 C.3      1 ZINC000124554441   -0.1500
2      C2     -0.4995    0.3460   -0.4510 C.3      1 ZINC000124554441   -0.1300
3      C3      0.2071   -0.1586   -1.7107 C.3      1 ZINC000124554441   -0.1200
4      C4      0.5808   -1.6313   -1.5306 C.3      1 ZINC000124554441   -0.1200
5      C5      1.2875   -2.1359   -2.7903 C.3      1 ZINC000124554441   -0.1300
6      C6      1.6611   -3.6086   -2.6102 C.3      1 ZINC000124554441    0.1200
7      N7      2.3377   -4.0918   -3.8164 N.am     1 ZINC000124554441   -0.7300
8      C8      2.7608   -5.3696   -3.8858 C.2      1 ZINC000124554441    0.5200
9      O9      2.5813   -6.1194   -2.9496 O.2      1 ZINC000124554441   -0.5300
10     C10     3.4568   -5.8666   -5.1266 C.3      1 ZINC000124554441   -0.1200
11     H11     4.3602   -5.2809   -5.2963 H        1 ZINC000124554441    0.1000
12     C12     3.8294   -7.3401   -4.9477 C.3      1 ZINC000124554441   -0.1000
13     C13     4.5654   -7.8369   -6.1941 C.3      1 ZINC000124554441   -0.1400
14     C14     3.6413   -7.7161   -7.4100 C.3      1 ZINC000124554441    0.0900
15     N15     3.1625   -6.3302   -7.5042 N.am     1 ZINC000124554441   -0.6000
16     C16     3.3094   -5.6290   -8.6457 C.2      1 ZINC000124554441    0.5600
17     O17     2.8481   -4.5080   -8.7340 O.2      1 ZINC000124554441   -0.5200
18     C18     4.0321   -6.2237   -9.7912 C.ar     1 ZINC000124554441   -0.0900
19     C19     3.6867   -7.4966  -10.2494 C.ar     1 ZINC000124554441   -0.0900
20     C20     4.3588   -8.0514  -11.3158 C.ar     1 ZINC000124554441   -0.0600
21     C21     5.3869   -7.3411  -11.9395 C.ar     1 ZINC000124554441    0.0100
22     C22     6.0859   -7.9178  -13.0483 C.1      1 ZINC000124554441    0.2400
23     N23     6.6403   -8.3754  -13.9280 N.1      1 ZINC000124554441   -0.3800
24     C24     5.7332   -6.0664  -11.4810 C.ar     1 ZINC000124554441    0.0000
25     Cl25    7.0106   -5.1821  -12.2556 Cl       1 ZINC000124554441   -0.0400
26     C26     5.0554   -5.5097  -10.4172 C.ar     1 ZINC000124554441   -0.0600
27     C27     2.5204   -5.7227   -6.3305 C.3      1 ZINC000124554441    0.1200
28     H28     0.0302    2.4047   -0.8004 H        1 ZINC000124554441    0.0500
29     H29    -1.5393    1.9224   -1.4876 H        1 ZINC000124554441    0.0500
30     H30    -1.3766    2.1782    0.2663 H        1 ZINC000124554441    0.0500
31     H31     0.1667    0.2423    0.4055 H        1 ZINC000124554441    0.0600
32     H32    -1.4029   -0.2400   -0.2817 H        1 ZINC000124554441    0.0600
33     H33    -0.4590   -0.0549   -2.5672 H        1 ZINC000124554441    0.0600
34     H34     1.1105    0.4274   -1.8800 H        1 ZINC000124554441    0.0600
35     H35     1.2470   -1.7350   -0.6741 H        1 ZINC000124554441    0.0700
36     H36    -0.3225   -2.2173   -1.3613 H        1 ZINC000124554441    0.0700
37     H37     0.6213   -2.0323   -3.6468 H        1 ZINC000124554441    0.0700
38     H38     2.1908   -1.5500   -2.9596 H        1 ZINC000124554441    0.0700
39     H39     2.3273   -3.7123   -1.7537 H        1 ZINC000124554441    0.0700
40     H40     0.7578   -4.1946   -2.4409 H        1 ZINC000124554441    0.0700
41     H41     2.4813   -3.4921   -4.5652 H        1 ZINC000124554441    0.4000
42     H42     4.4761   -7.4480   -4.0769 H        1 ZINC000124554441    0.0800
43     H43     2.9236   -7.9287   -4.8021 H        1 ZINC000124554441    0.0800
44     H44     5.4584   -7.2327   -6.3543 H        1 ZINC000124554441    0.0700
45     H45     4.8510   -8.8798   -6.0565 H        1 ZINC000124554441    0.0900
46     H46     4.1919   -7.9747   -8.3145 H        1 ZINC000124554441    0.1000
47     H47     2.7920   -8.3889   -7.2917 H        1 ZINC000124554441    0.0800
48     H48     2.8922   -8.0466   -9.7670 H        1 ZINC000124554441    0.1500
49     H49     4.0910   -9.0360  -11.6696 H        1 ZINC000124554441    0.1500
50     H50     5.3222   -4.5252  -10.0625 H        1 ZINC000124554441    0.1500
51     H51     1.5796   -6.2327   -6.1237 H        1 ZINC000124554441    0.0800
52     H52     2.3313   -4.6666   -6.5231 H        1 ZINC000124554441    0.1000
@<TRIPOS>BOND
1     1     2     1
2     1     28    1
3     1     29    1
4     1     30    1
5     2     3     1
6     2     31    1
7     2     32    1
8     3     4     1
9     3     33    1
10    3     34    1
11    4     5     1
12    4     35    1
13    4     36    1
14    5     6     1
15    5     37    1
16    5     38    1
17    6     7     1
18    6     39    1
19    6     40    1
20    7     8     am
21    7     41    1
22    8     9     2
23    8     10    1
24    10    11    1
25    10    27    1
26    10    12    1
27    12    13    1
28    12    42    1
29    12    43    1
30    13    14    1
31    13    44    1
32    13    45    1
33    14    15    1
34    14    46    1
35    14    47    1
36    15    16    am
37    15    27    1
38    16    17    2
39    16    18    1
40    18    26    ar
41    18    19    ar
42    19    20    ar
43    19    48    1
44    20    21    ar
45    20    49    1
46    21    22    1
47    21    24    ar
48    22    23    3
49    24    25    1
50    24    26    ar
51    26    50    1
52    27    51    1
53    27    52    1
@<TRIPOS>SUBSTRUCTURE
1   ZINC000124554441 1     RESIDUE    1   A     ZIN   1
@<TRIPOS>MOLECULE
ZINC000668548901
48	50	1	0	0
SMALL
USER_CHARGES
@<TRIPOS>ATOM
1      O1      0.0023   -0.0042    0.0050 O.2      1 ZINC000668548901   -0.5700
2      C2     -0.0144    1.2115    0.0071 C.2      1 ZINC000668548901    0.7100
3      N3      1.1435    1.9013    0.0014 N.am     1 ZINC000668548901   -0.6800
4      C4      2.3601    1.2234    0.0914 C.ar     1 ZINC000668548901    0.2200
5      C5      2.5295   -0.0248   -0.5100 C.ar     1 ZINC000668548901   -0.1700
6      C6      3.7450   -0.6657   -0.4005 C.ar     1 ZINC000668548901    0.1200
7      N7      4.7447   -0.1156    0.2632 N.ar     1 ZINC000668548901   -0.4300
8      C8      4.6267    1.0677    0.8492 C.ar     1 ZINC000668548901    0.1100
9      S9      5.9978    1.7501    1.7204 S.3      1 ZINC000668548901    0.0900
10     C10     7.2432    0.5187    1.5267 C.ar     1 ZINC000668548901    0.0900
11     C11     8.4964    0.7096    2.0996 C.ar     1 ZINC000668548901   -0.1500
12     C12     9.4646   -0.2655    1.9400 C.ar     1 ZINC000668548901   -0.0700
13     C13     9.1457   -1.4029    1.2101 C.ar     1 ZINC000668548901   -0.1700
14     C14     7.8813   -1.5269    0.6688 C.ar     1 ZINC000668548901    0.1000
15     N15     6.9760   -0.5830    0.8414 N.ar     1 ZINC000668548901   -0.4200
16     C16     3.4355    1.7775    0.7779 C.ar     1 ZINC000668548901   -0.1800
17     N17    -1.1907    1.8693    0.0097 N.am     1 ZINC000668548901   -0.7200
18     C18    -2.4492    1.1195    0.0098 C.3      1 ZINC000668548901    0.1700
19     H19    -2.3298    0.2093    0.5976 H        1 ZINC000668548901    0.1000
20     C20    -2.8247    0.7530   -1.4274 C.3      1 ZINC000668548901    0.0600
21     O21    -3.0949    1.9449   -2.1679 O.3      1 ZINC000668548901   -0.5700
22     C22    -3.5558    1.9806    0.6223 C.3      1 ZINC000668548901   -0.1300
23     H23    -3.6759    2.8910    0.0351 H        1 ZINC000668548901    0.1000
24     C24    -3.1825    2.3456    2.0623 C.3      1 ZINC000668548901   -0.1200
25     C25    -4.3313    3.1410    2.6899 C.3      1 ZINC000668548901   -0.1600
26     C26    -5.6162    2.3119    2.6151 C.3      1 ZINC000668548901    0.0600
27     O27    -5.8889    1.9804    1.2521 O.3      1 ZINC000668548901   -0.3800
28     C28    -4.8709    1.1969    0.6259 C.3      1 ZINC000668548901    0.0700
29     H29     1.1312    2.8689   -0.0654 H        1 ZINC000668548901    0.4100
30     H30     1.7173   -0.4834   -1.0546 H        1 ZINC000668548901    0.1500
31     H31     3.8812   -1.6316   -0.8641 H        1 ZINC000668548901    0.1600
32     H32     8.7107    1.6069    2.6610 H        1 ZINC000668548901    0.1400
33     H33    10.4466   -0.1447    2.3730 H        1 ZINC000668548901    0.1400
34     H34     9.8792   -2.1825    1.0668 H        1 ZINC000668548901    0.1400
35     H35     7.6292   -2.4097    0.1001 H        1 ZINC000668548901    0.1600
36     H36     3.3423    2.7413    1.2562 H        1 ZINC000668548901    0.1400
37     H37    -1.2040    2.8392    0.0114 H        1 ZINC000668548901    0.4000
38     H38    -1.9986    0.2154   -1.8929 H        1 ZINC000668548901    0.0500
39     H39    -3.7122    0.1202   -1.4209 H        1 ZINC000668548901    0.0600
40     H40    -3.3402    1.7880   -3.0900 H        1 ZINC000668548901    0.3800
41     H41    -3.0127    1.4351    2.6370 H        1 ZINC000668548901    0.0700
42     H42    -2.2768    2.9521    2.0616 H        1 ZINC000668548901    0.0700
43     H43    -4.0977    3.3574    3.7324 H        1 ZINC000668548901    0.0800
44     H44    -4.4682    4.0749    2.1449 H        1 ZINC000668548901    0.0700
45     H45    -5.4925    1.3967    3.1941 H        1 ZINC000668548901    0.0500
46     H46    -6.4460    2.8901    3.0217 H        1 ZINC000668548901    0.1000
47     H47    -5.1646    0.9719   -0.3994 H        1 ZINC000668548901    0.1000
48     H48    -4.7367    0.2669    1.1782 H        1 ZINC000668548901    0.0500
@<TRIPOS>BOND
1     1     2     2
2     2     3     am
3     2     17    am
4     3     4     1
5     3     29    1
6     4     16    ar
7     4     5     ar
8     5     6     ar
9     5     30    1
10    6     7     ar
11    6     31    1
12    7     8     ar
13    8     9     1
14    8     16    ar
15    9     10    1
16    10    15    ar
17    10    11    ar
18    11    12    ar
19    11    32    1
20    12    13    ar
21    12    33    1
22    13    14    ar
23    13    34    1
24    14    15    ar
25    14    35    1
26    16    36    1
27    17    18    1
28    17    37    1
29    18    19    1
30    18    20    1
31    18    22    1
32    20    21    1
33    20    38    1
34    20    39    1
35    21    40    1
36    22    23    1
37    22    28    1
38    22    24    1
39    24    25    1
40    24    41    1
41    24    42    1
42    25    26    1
43    25    43    1
44    25    44    1
45    26    27    1
46    26    45    1
47    26    46    1
48    27    28    1
49    28    47    1
50    28    48    1
@<TRIPOS>SUBSTRUCTURE
1   ZINC000668548901 1     RESIDUE    1   A     ZIN   1
@<TRIPOS>MOLECULE
ZINC000652498551
46	47	1	0	0
SMALL
USER_CHARGES
@<TRIPOS>ATOM
1      C1     -0.0187    1.5258    0.0104 C.3      1 ZINC000652498551   -0.1300
2      C2      0.0021   -0.0041    0.0020 C.3      1 ZINC000652498551   -0.1300
3      C3      0.7421   -0.5109    1.2415 C.3      1 ZINC000652498551   -0.1300
4      C4     -1.4117   -0.5257    0.0127 C.2      1 ZINC000652498551    0.5000
5      O5     -1.8097   -1.2271   -0.9017 O.co2    1 ZINC000652498551   -0.7000
6      O6     -2.1576   -0.2463    0.9358 O.co2    1 ZINC000652498551   -0.6700
7      C7      0.7182   -0.4975   -1.2568 C.3      1 ZINC000652498551   -0.0600
8      H8      1.7409   -0.1205   -1.2651 H        1 ZINC000652498551    0.0700
9      C9     -0.0231    0.0075   -2.4980 C.3      1 ZINC000652498551   -0.1500
10     C10     0.6553   -0.5559   -3.7501 C.3      1 ZINC000652498551   -0.1400
11     C11     0.6759   -2.0837   -3.6686 C.3      1 ZINC000652498551   -0.0100
12     N12     1.4210   -2.5037   -2.4757 N.4      1 ZINC000652498551   -0.3800
13     H13     2.3521   -2.1163   -2.5083 H        1 ZINC000652498551    0.4200
14     C14     1.5032   -3.9700   -2.4425 C.3      1 ZINC000652498551    0.0000
15     C15     2.3312   -4.4614   -3.6316 C.3      1 ZINC000652498551    0.0200
16     O16     3.6782   -4.0040   -3.4956 O.3      1 ZINC000652498551   -0.3100
17     C17     4.5512   -4.3560   -4.4758 C.ar     1 ZINC000652498551    0.1600
18     C18     4.1188   -5.1207   -5.5487 C.ar     1 ZINC000652498551   -0.2300
19     C19     5.0096   -5.4781   -6.5458 C.ar     1 ZINC000652498551    0.1500
20     F20     4.5894   -6.2231   -7.5915 F        1 ZINC000652498551   -0.1200
21     C21     6.3312   -5.0720   -6.4719 C.ar     1 ZINC000652498551   -0.1600
22     C22     6.7634   -4.3095   -5.4015 C.ar     1 ZINC000652498551   -0.0300
23     Br23    8.5690   -3.7564   -5.3037 Br       1 ZINC000652498551   -0.0100
24     C24     5.8750   -3.9459   -4.4069 C.ar     1 ZINC000652498551   -0.1300
25     C25     0.7375   -2.0275   -1.2671 C.3      1 ZINC000652498551   -0.0200
26     H26     1.0039    1.9031    0.0027 H        1 ZINC000652498551    0.0400
27     H27    -0.5459    1.8868   -0.8726 H        1 ZINC000652498551    0.0500
28     H28    -0.5289    1.8773    0.9072 H        1 ZINC000652498551    0.0600
29     H29     0.2319   -0.1594    2.1383 H        1 ZINC000652498551    0.0700
30     H30     0.7568   -1.6008    1.2356 H        1 ZINC000652498551    0.0400
31     H31     1.7647   -0.1336    1.2338 H        1 ZINC000652498551    0.0500
32     H32    -1.0602   -0.3260   -2.4640 H        1 ZINC000652498551    0.1300
33     H33     0.0101    1.0967   -2.5243 H        1 ZINC000652498551    0.0800
34     H34     0.1001   -0.2460   -4.6354 H        1 ZINC000652498551    0.1000
35     H35     1.6769   -0.1807   -3.8106 H        1 ZINC000652498551    0.0700
36     H36    -0.3461   -2.4578   -3.6084 H        1 ZINC000652498551    0.1300
37     H37     1.1580   -2.4881   -4.5586 H        1 ZINC000652498551    0.1100
38     H38     1.9779   -4.2864   -1.5138 H        1 ZINC000652498551    0.1400
39     H39     0.4997   -4.3916   -2.4996 H        1 ZINC000652498551    0.1500
40     H40     2.3184   -5.5510   -3.6578 H        1 ZINC000652498551    0.1100
41     H41     1.9065   -4.0707   -4.5563 H        1 ZINC000652498551    0.0900
42     H42     3.0879   -5.4374   -5.6061 H        1 ZINC000652498551    0.1500
43     H43     7.0255   -5.3510   -7.2506 H        1 ZINC000652498551    0.1500
44     H44     6.2132   -3.3504   -3.5719 H        1 ZINC000652498551    0.1500
45     H45     1.2649   -2.3907   -0.3851 H        1 ZINC000652498551    0.1100
46     H46    -0.2859   -2.4024   -1.2575 H        1 ZINC000652498551    0.1700
@<TRIPOS>BOND
1     1     2     1
2     1     26    1
3     1     27    1
4     1     28    1
5     2     3     1
6     2     4     1
7     2     7     1
8     3     29    1
9     3     30    1
10    3     31    1
11    4     5     ar
12    4     6     ar
13    7     8     1
14    7     25    1
15    7     9     1
16    9     10    1
17    9     32    1
18    9     33    1
19    10    11    1
20    10    34    1
21    10    35    1
22    11    12    1
23    11    36    1
24    11    37    1
25    12    13    1
26    12    14    1
27    12    25    1
28    14    15    1
29    14    38    1
30    14    39    1
31    15    16    1
32    15    40    1
33    15    41    1
34    16    17    1
35    17    24    ar
36    17    18    ar
37    18    19    ar
38    18    42    1
39    19    20    1
40    19    21    ar
41    21    22    ar
42    21    43    1
43    22    23    1
44    22    24    ar
45    24    44    1
46    25    45    1
47    25    46    1
@<TRIPOS>SUBSTRUCTURE
1   ZINC000652498551 1     RESIDUE    1   A     ZIN   1
@<TRIPOS>MOLECULE
ZINC000847397179
55	56	1	0	0
SMALL
USER_CHARGES
@<TRIPOS>ATOM
1      C1      5.1687   -1.1302   -4.5271 C.3      1 ZINC000847397179   -0.1500
2      C2      4.7116   -0.6335   -3.1541 C.3      1 ZINC000847397179   -0.1000
3      H3      4.8872    0.4396   -3.0790 H        1 ZINC000847397179    0.0900
4      C4      5.5009   -1.3571   -2.0613 C.3      1 ZINC000847397179   -0.0200
5      C5      6.9562   -0.9781   -2.1581 C.2      1 ZINC000847397179    0.0100
6      C6      7.7091   -0.4688   -1.1645 C.2      1 ZINC000847397179   -0.0500
7      N7      8.9626   -0.2724   -1.6782 N.pl3    1 ZINC000847397179   -0.5700
8      C8      8.9320   -0.6688   -2.9687 C.2      1 ZINC000847397179    0.1800
9      N9      7.7302   -1.0943   -3.2473 N.2      1 ZINC000847397179   -0.4900
10     C10     3.2412   -0.9153   -2.9820 C.2      1 ZINC000847397179    0.5200
11     O11     2.8619   -1.6250   -2.0746 O.2      1 ZINC000847397179   -0.5300
12     N12     2.3477   -0.3786   -3.8364 N.am     1 ZINC000847397179   -0.7400
13     C13     0.9183   -0.6525   -3.6691 C.3      1 ZINC000847397179    0.1200
14     C14     0.1415   -0.0391   -4.8358 C.3      1 ZINC000847397179    0.1500
15     H15     0.2821    1.0417   -4.8404 H        1 ZINC000847397179    0.0800
16     C16     0.6477   -0.6285   -6.1561 C.3      1 ZINC000847397179   -0.1300
17     C17    -0.2238   -0.1176   -7.3057 C.3      1 ZINC000847397179   -0.1200
18     C18    -1.6689   -0.5754   -7.0949 C.3      1 ZINC000847397179   -0.1400
19     C19    -2.2014    0.0146   -5.7853 C.3      1 ZINC000847397179    0.1100
20     N20    -1.2876   -0.3493   -4.6933 N.am     1 ZINC000847397179   -0.5900
21     C21    -1.7509   -0.9602   -3.5850 C.2      1 ZINC000847397179    0.6500
22     O22    -1.0049   -1.1673   -2.6485 O.2      1 ZINC000847397179   -0.5500
23     O23    -3.0404   -1.3411   -3.5154 O.3      1 ZINC000847397179   -0.3600
24     C24    -3.4700   -1.9934   -2.2914 C.3      1 ZINC000847397179    0.1400
25     C25    -3.2561   -1.0482   -1.1075 C.3      1 ZINC000847397179   -0.1800
26     C26    -4.9540   -2.3503   -2.3974 C.3      1 ZINC000847397179   -0.1400
27     C27    -2.6525   -3.2693   -2.0795 C.3      1 ZINC000847397179   -0.1800
28     H28     4.9932   -2.2033   -4.6023 H        1 ZINC000847397179    0.0500
29     H29     4.6064   -0.6146   -5.3057 H        1 ZINC000847397179    0.0500
30     H30     6.2323   -0.9264   -4.6516 H        1 ZINC000847397179    0.1000
31     H31     5.1148   -1.0696   -1.0833 H        1 ZINC000847397179    0.0800
32     H32     5.3966   -2.4344   -2.1906 H        1 ZINC000847397179    0.0800
33     H33     7.3860   -0.2558   -0.1562 H        1 ZINC000847397179    0.1800
34     H34     9.7296    0.0849   -1.2038 H        1 ZINC000847397179    0.4200
35     H35     9.7652   -0.6420   -3.6554 H        1 ZINC000847397179    0.2100
36     H36     2.6511    0.1890   -4.5621 H        1 ZINC000847397179    0.3900
37     H37     0.7546   -1.7299   -3.6500 H        1 ZINC000847397179    0.0800
38     H38     0.5719   -0.2157   -2.7324 H        1 ZINC000847397179    0.1000
39     H39     1.6810   -0.3219   -6.3189 H        1 ZINC000847397179    0.0800
40     H40     0.5929   -1.7163   -6.1137 H        1 ZINC000847397179    0.0700
41     H41    -0.1882    0.9715   -7.3321 H        1 ZINC000847397179    0.0700
42     H42     0.1494   -0.5160   -8.2491 H        1 ZINC000847397179    0.0700
43     H43    -2.2845   -0.2311   -7.9259 H        1 ZINC000847397179    0.0800
44     H44    -1.7019   -1.6637   -7.0436 H        1 ZINC000847397179    0.0700
45     H45    -2.2541    1.1001   -5.8683 H        1 ZINC000847397179    0.0700
46     H46    -3.1938   -0.3870   -5.5805 H        1 ZINC000847397179    0.0900
47     H47    -3.8384   -0.1392   -1.2584 H        1 ZINC000847397179    0.0600
48     H48    -3.5785   -1.5379   -0.1886 H        1 ZINC000847397179    0.0700
49     H49    -2.1988   -0.7939   -1.0320 H        1 ZINC000847397179    0.0900
50     H50    -5.1064   -3.0238   -3.2408 H        1 ZINC000847397179    0.0700
51     H51    -5.2764   -2.8400   -1.4785 H        1 ZINC000847397179    0.0800
52     H52    -5.5364   -1.4414   -2.5483 H        1 ZINC000847397179    0.0700
53     H53    -1.5952   -3.0150   -2.0039 H        1 ZINC000847397179    0.0900
54     H54    -2.9749   -3.7590   -1.1606 H        1 ZINC000847397179    0.0700
55     H55    -2.8049   -3.9427   -2.9229 H        1 ZINC000847397179    0.0600
@<TRIPOS>BOND
1     1     2     1
2     1     28    1
3     1     29    1
4     1     30    1
5     2     3     1
6     2     4     1
7     2     10    1
8     4     5     1
9     4     31    1
10    4     32    1
11    5     9     1
12    5     6     2
13    6     7     1
14    6     33    1
15    7     8     1
16    7     34    1
17    8     9     2
18    8     35    1
19    10    11    2
20    10    12    am
21    12    13    1
22    12    36    1
23    13    14    1
24    13    37    1
25    13    38    1
26    14    15    1
27    14    20    1
28    14    16    1
29    16    17    1
30    16    39    1
31    16    40    1
32    17    18    1
33    17    41    1
34    17    42    1
35    18    19    1
36    18    43    1
37    18    44    1
38    19    20    1
39    19    45    1
40    19    46    1
41    20    21    am
42    21    22    2
43    21    23    1
44    23    24    1
45    24    25    1
46    24    26    1
47    24    27    1
48    25    47    1
49    25    48    1
50    25    49    1
51    26    50    1
52    26    51    1
53    26    52    1
54    27    53    1
55    27    54    1
56    27    55    1
@<TRIPOS>SUBSTRUCTURE
1   ZINC000847397179 1     RESIDUE    1   A     ZIN   1
@<TRIPOS>MOLECULE
ZINC001143596311
39	39	1	0	0
SMALL
USER_CHARGES
@<TRIPOS>ATOM
1      C1     -0.0173    1.4248    0.0099 C.3      1 ZINC001143596311    0.0400
2      O2      0.0021   -0.0041    0.0020 O.3      1 ZINC001143596311   -0.2600
3      N3      0.6673   -0.5837   -1.1650 N.3      1 ZINC001143596311   -0.3700
4      C4      1.8665   -1.3340   -0.7687 C.3      1 ZINC001143596311    0.0000
5      C5     -0.2561   -1.4327   -1.9296 C.3      1 ZINC001143596311    0.0400
6      C6      0.4356   -1.9192   -3.2046 C.3      1 ZINC001143596311   -0.1300
7      C7     -0.5261   -2.8034   -4.0010 C.3      1 ZINC001143596311    0.1200
8      N8      0.1362   -3.2692   -5.2219 N.am     1 ZINC001143596311   -0.7200
9      C9     -0.5239   -4.0677   -6.0839 C.2      1 ZINC001143596311    0.5600
10     O10    -1.6688   -4.4014   -5.8484 O.2      1 ZINC001143596311   -0.5200
11     C11     0.1442   -4.5375   -7.3156 C.ar     1 ZINC001143596311   -0.1500
12     C12     1.4609   -4.1606   -7.5859 C.ar     1 ZINC001143596311   -0.0200
13     C13     2.0791   -4.6022   -8.7369 C.ar     1 ZINC001143596311   -0.1300
14     C14     1.3962   -5.4176   -9.6239 C.ar     1 ZINC001143596311    0.0700
15     Cl15    2.1810   -5.9695  -11.0707 Cl       1 ZINC001143596311   -0.0200
16     C16     0.0894   -5.7950   -9.3610 C.ar     1 ZINC001143596311   -0.6800
17     S17    -0.7711   -6.8332  -10.4952 S.o2     1 ZINC001143596311    2.7000
18     N18    -0.9459   -5.9809  -11.9042 N.am     1 ZINC001143596311   -1.2500
19     O19     0.1001   -7.9171  -10.7873 O.2      1 ZINC001143596311   -0.9400
20     O20    -2.0787   -7.0076   -9.9669 O.2      1 ZINC001143596311   -0.9500
21     C21    -0.5371   -5.3649   -8.2106 C.ar     1 ZINC001143596311    0.0500
22     H22     1.0053    1.8021    0.0021 H        1 ZINC001143596311    0.0400
23     H23    -0.5445    1.7859   -0.8732 H        1 ZINC001143596311    0.0500
24     H24    -0.5275    1.7763    0.9067 H        1 ZINC001143596311    0.0900
25     H25     1.5836   -2.1399   -0.0915 H        1 ZINC001143596311    0.0400
26     H26     2.3415   -1.7542   -1.6552 H        1 ZINC001143596311    0.0900
27     H27     2.5641   -0.6645   -0.2655 H        1 ZINC001143596311    0.0800
28     H28    -0.5466   -2.2910   -1.3238 H        1 ZINC001143596311    0.0500
29     H29    -1.1435   -0.8578   -2.1943 H        1 ZINC001143596311    0.0900
30     H30     0.7261   -1.0609   -3.8105 H        1 ZINC001143596311    0.0800
31     H31     1.3230   -2.4941   -2.9399 H        1 ZINC001143596311    0.0800
32     H32    -0.8167   -3.6617   -3.3952 H        1 ZINC001143596311    0.0800
33     H33    -1.4135   -2.2285   -4.2657 H        1 ZINC001143596311    0.0800
34     H34     1.0498   -3.0029   -5.4098 H        1 ZINC001143596311    0.4000
35     H35     1.9942   -3.5242   -6.8953 H        1 ZINC001143596311    0.1500
36     H36     3.0977   -4.3113   -8.9472 H        1 ZINC001143596311    0.1600
37     H37    -0.5950   -5.0791  -11.9723 H        1 ZINC001143596311    0.4200
38     H38    -1.3991   -6.3834  -12.6615 H        1 ZINC001143596311    0.4200
39     H39    -1.5559   -5.6597   -8.0067 H        1 ZINC001143596311    0.1700
@<TRIPOS>BOND
1     1     2     1
2     1     22    1
3     1     23    1
4     1     24    1
5     2     3     1
6     3     4     1
7     3     5     1
8     4     25    1
9     4     26    1
10    4     27    1
11    5     6     1
12    5     28    1
13    5     29    1
14    6     7     1
15    6     30    1
16    6     31    1
17    7     8     1
18    7     32    1
19    7     33    1
20    8     9     am
21    8     34    1
22    9     10    2
23    9     11    1
24    11    21    ar
25    11    12    ar
26    12    13    ar
27    12    35    1
28    13    14    ar
29    13    36    1
30    14    15    1
31    14    16    ar
32    16    17    1
33    16    21    ar
34    17    18    am
35    17    19    2
36    17    20    2
37    18    37    1
38    18    38    1
39    21    39    1
@<TRIPOS>SUBSTRUCTURE
1   ZINC001143596311 1     RESIDUE    1   A     ZIN   1
@<TRIPOS>MOLECULE
ZINC001120957943
43	46	1	0	0
SMALL
USER_CHARGES
@<TRIPOS>ATOM
1      C1      0.5998    1.4312   -0.3728 C.3      1 ZINC001120957943    0.0900
2      N2      0.5162   -0.0237   -0.2227 N.pl3    1 ZINC001120957943   -0.6000
3      C3      0.4402   -0.6191    1.1137 C.3      1 ZINC001120957943    0.2200
4      C4     -1.0045   -0.8159    1.4945 C.2      1 ZINC001120957943    0.1600
5      N5     -1.7601   -1.8361    1.1779 N.2      1 ZINC001120957943   -0.2500
6      N6     -2.9401   -1.6734    1.6706 N.2      1 ZINC001120957943   -0.2800
7      C7     -2.9878   -0.5490    2.3181 C.2      1 ZINC001120957943    0.1700
8      C8     -4.1534    0.0624    3.0540 C.3      1 ZINC001120957943   -0.0300
9      C9     -3.8384    1.5440    3.3005 C.3      1 ZINC001120957943   -0.1300
10     C10    -2.4309    1.6710    3.8904 C.3      1 ZINC001120957943   -0.1500
11     H11    -2.3309    0.9949    4.7396 H        1 ZINC001120957943    0.1300
12     C12    -2.2012    3.1104    4.3552 C.3      1 ZINC001120957943    0.4600
13     F13    -3.1847    3.4626    5.2857 F        1 ZINC001120957943   -0.1700
14     F14    -0.9388    3.2127    4.9497 F        1 ZINC001120957943   -0.1800
15     F15    -2.2699    3.9722    3.2553 F        1 ZINC001120957943   -0.1800
16     C16    -1.3918    1.3075    2.8233 C.3      1 ZINC001120957943    0.1100
17     N17    -1.7600    0.0225    2.2298 N.pl3    1 ZINC001120957943   -0.4700
18     C18     0.5091   -0.8375   -1.3460 C.ar     1 ZINC001120957943    0.3700
19     C19     0.7837   -0.2852   -2.6093 C.ar     1 ZINC001120957943    0.0500
20     N20     0.7819   -1.0390   -3.6822 N.ar     1 ZINC001120957943   -0.3900
21     C21     0.5165   -2.3472   -3.5773 C.ar     1 ZINC001120957943    0.0400
22     C22     0.5089   -3.1765   -4.7115 C.ar     1 ZINC001120957943   -0.0600
23     C23     0.2361   -4.5042   -4.5758 C.ar     1 ZINC001120957943   -0.0400
24     Cl24    0.2281   -5.5242   -5.9805 Cl       1 ZINC001120957943   -0.0600
25     C25    -0.0364   -5.0556   -3.3242 C.ar     1 ZINC001120957943   -0.0800
26     C26    -0.0376   -4.2821   -2.2045 C.ar     1 ZINC001120957943   -0.0800
27     C27     0.2392   -2.9079   -2.3059 C.ar     1 ZINC001120957943    0.1400
28     N28     0.2500   -2.1252   -1.2199 N.ar     1 ZINC001120957943   -0.4700
29     H29     1.6462    1.7366   -0.3764 H        1 ZINC001120957943    0.0700
30     H30     0.1318    1.7271   -1.3116 H        1 ZINC001120957943    0.0800
31     H31     0.0837    1.9124    0.4580 H        1 ZINC001120957943    0.0700
32     H32     0.9500   -1.5825    1.1117 H        1 ZINC001120957943    0.1200
33     H33     0.9189    0.0438    1.8345 H        1 ZINC001120957943    0.1000
34     H34    -5.0569   -0.0263    2.4507 H        1 ZINC001120957943    0.1100
35     H35    -4.2951   -0.4472    4.0070 H        1 ZINC001120957943    0.1000
36     H36    -3.8882    2.0884    2.3575 H        1 ZINC001120957943    0.0900
37     H37    -4.5646    1.9590    3.9995 H        1 ZINC001120957943    0.1000
38     H38    -1.3739    2.0784    2.0529 H        1 ZINC001120957943    0.1000
39     H39    -0.4075    1.2256    3.2844 H        1 ZINC001120957943    0.1100
40     H40     0.9977    0.7697   -2.6970 H        1 ZINC001120957943    0.1700
41     H41     0.7183   -2.7629   -5.6869 H        1 ZINC001120957943    0.1500
42     H42    -0.2499   -6.1112   -3.2424 H        1 ZINC001120957943    0.1400
43     H43    -0.2507   -4.7225   -1.2416 H        1 ZINC001120957943    0.1500
@<TRIPOS>BOND
1     1     2     1
2     1     29    1
3     1     30    1
4     1     31    1
5     2     3     1
6     2     18    1
7     3     4     1
8     3     32    1
9     3     33    1
10    4     17    1
11    4     5     2
12    5     6     1
13    6     7     2
14    7     17    1
15    7     8     1
16    8     9     1
17    8     34    1
18    8     35    1
19    9     10    1
20    9     36    1
21    9     37    1
22    10    11    1
23    10    12    1
24    10    16    1
25    12    13    1
26    12    14    1
27    12    15    1
28    16    17    1
29    16    38    1
30    16    39    1
31    18    28    ar
32    18    19    ar
33    19    20    ar
34    19    40    1
35    20    21    ar
36    21    27    ar
37    21    22    ar
38    22    23    ar
39    22    41    1
40    23    24    1
41    23    25    ar
42    25    26    ar
43    25    42    1
44    26    27    ar
45    26    43    1
46    27    28    ar
@<TRIPOS>SUBSTRUCTURE
1   ZINC001120957943 1     RESIDUE    1   A     ZIN   1
@<TRIPOS>MOLECULE
ZINC001085711660
50	52	1	0	0
SMALL
USER_CHARGES
@<TRIPOS>ATOM
1      C1     -0.2969    0.7618    2.1480 C.3      1 ZINC001085711660    0.0300
2      O2     -0.2073   -0.5760    1.6538 O.3      1 ZINC001085711660   -0.3800
3      C3      0.3699   -0.6767    0.3504 C.3      1 ZINC001085711660    0.1400
4      C4      0.4149   -2.1235   -0.0687 C.2      1 ZINC001085711660    0.0100
5      C5     -0.5568   -2.7784   -0.7417 C.2      1 ZINC001085711660   -0.1900
6      C6     -0.1134   -4.0971   -0.9282 C.2      1 ZINC001085711660   -0.1200
7      C7      1.1218   -4.1810   -0.3523 C.2      1 ZINC001085711660   -0.0700
8      C8      1.9705   -5.3760   -0.3037 C.2      1 ZINC001085711660    0.6000
9      O9      1.5421   -6.4433   -0.7018 O.2      1 ZINC001085711660   -0.5200
10     N10     3.2250   -5.2923    0.1819 N.am     1 ZINC001085711660   -0.6000
11     C11     3.7165   -4.0243    0.7268 C.3      1 ZINC001085711660    0.0700
12     C12     4.0971   -6.4694    0.1649 C.3      1 ZINC001085711660    0.1300
13     C13     4.8816   -6.5038   -1.1482 C.3      1 ZINC001085711660    0.0000
14     H14     4.2693   -6.8081   -1.9971 H        1 ZINC001085711660    0.1000
15     C15     6.2097   -7.2671   -1.0473 C.3      1 ZINC001085711660   -0.1400
16     C16     6.7280   -6.1394   -1.9508 C.3      1 ZINC001085711660    0.0100
17     N17     5.6642   -5.2788   -1.3974 N.3      1 ZINC001085711660   -0.4500
18     C18     5.0461   -4.4626   -2.4508 C.3      1 ZINC001085711660    0.1500
19     H19     4.2014   -3.9127   -2.0358 H        1 ZINC001085711660    0.1000
20     C20     4.5574   -5.3721   -3.5800 C.3      1 ZINC001085711660   -0.1900
21     C21     6.0612   -3.4897   -2.9931 C.2      1 ZINC001085711660    0.2000
22     N22     7.2919   -3.7754   -3.3101 N.2      1 ZINC001085711660   -0.4700
23     C23     7.8923   -2.6584   -3.7575 C.2      1 ZINC001085711660   -0.0400
24     C24     6.9911   -1.6635   -3.7085 C.2      1 ZINC001085711660   -0.0500
25     C25     7.2175   -0.2297   -4.1137 C.3      1 ZINC001085711660   -0.0700
26     O26     5.8449   -2.1898   -3.2340 O.3      1 ZINC001085711660   -0.2000
27     O27     1.4269   -2.9706    0.1595 O.3      1 ZINC001085711660   -0.1500
28     H28     0.7012    1.1961    2.2039 H        1 ZINC001085711660    0.0500
29     H29    -0.9150    1.3569    1.4756 H        1 ZINC001085711660    0.0500
30     H30    -0.7455    0.7529    3.1414 H        1 ZINC001085711660    0.0900
31     H31    -0.2342   -0.1115   -0.3592 H        1 ZINC001085711660    0.0900
32     H32     1.3819   -0.2722    0.3690 H        1 ZINC001085711660    0.0700
33     H33    -1.4977   -2.3649   -1.0737 H        1 ZINC001085711660    0.1600
34     H34    -0.6461   -4.8914   -1.4299 H        1 ZINC001085711660    0.1600
35     H35     3.4005   -3.9284    1.7655 H        1 ZINC001085711660    0.0600
36     H36     4.8050   -4.0042    0.6748 H        1 ZINC001085711660    0.0900
37     H37     3.3096   -3.1970    0.1453 H        1 ZINC001085711660    0.0800
38     H38     4.7927   -6.4183    1.0025 H        1 ZINC001085711660    0.0900
39     H39     3.4914   -7.3716    0.2500 H        1 ZINC001085711660    0.0900
40     H40     6.6454   -7.2745   -0.0482 H        1 ZINC001085711660    0.1000
41     H41     6.1975   -8.2487   -1.5211 H        1 ZINC001085711660    0.0800
42     H42     7.7338   -5.8060   -1.6954 H        1 ZINC001085711660    0.0900
43     H43     6.6089   -6.3457   -3.0144 H        1 ZINC001085711660    0.0800
44     H44     5.3795   -6.0010   -3.9215 H        1 ZINC001085711660    0.0800
45     H45     3.7461   -6.0014   -3.2143 H        1 ZINC001085711660    0.0800
46     H46     4.1985   -4.7616   -4.4086 H        1 ZINC001085711660    0.0700
47     H47     8.9149   -2.5760   -4.0951 H        1 ZINC001085711660    0.1800
48     H48     6.9737   -0.1076   -5.1690 H        1 ZINC001085711660    0.0800
49     H49     6.5802    0.4218   -3.5158 H        1 ZINC001085711660    0.0800
50     H50     8.2623    0.0336   -3.9493 H        1 ZINC001085711660    0.0900
@<TRIPOS>BOND
1     1     2     1
2     1     28    1
3     1     29    1
4     1     30    1
5     2     3     1
6     3     4     1
7     3     31    1
8     3     32    1
9     4     27    1
10    4     5     2
11    5     6     1
12    5     33    1
13    6     7     2
14    6     34    1
15    7     8     1
16    7     27    1
17    8     9     2
18    8     10    am
19    10    11    1
20    10    12    1
21    11    35    1
22    11    36    1
23    11    37    1
24    12    13    1
25    12    38    1
26    12    39    1
27    13    14    1
28    13    17    1
29    13    15    1
30    15    16    1
31    15    40    1
32    15    41    1
33    16    17    1
34    16    42    1
35    16    43    1
36    17    18    1
37    18    19    1
38    18    20    1
39    18    21    1
40    20    44    1
41    20    45    1
42    20    46    1
43    21    26    1
44    21    22    2
45    22    23    1
46    23    24    2
47    23    47    1
48    24    25    1
49    24    26    1
50    25    48    1
51    25    49    1
52    25    50    1
@<TRIPOS>SUBSTRUCTURE
1   ZINC001085711660 1     RESIDUE    1   A     ZIN   1
@<TRIPOS>MOLECULE
ZINC000066361645
55	57	1	0	0
SMALL
USER_CHARGES
@<TRIPOS>ATOM
1      C1      1.8905    1.4733    0.6394 C.3      1 ZINC000066361645   -0.1400
2      S2      1.3242   -0.2377    0.4341 S.3      1 ZINC000066361645   -0.1100
3      C3      1.4237   -0.4818   -1.3080 C.ar     1 ZINC000066361645   -0.1200
4      C4      1.8685    0.5437   -2.1288 C.ar     1 ZINC000066361645   -0.1100
5      C5      1.9480    0.3523   -3.5006 C.ar     1 ZINC000066361645    0.0500
6      C6      1.5831   -0.8690   -4.0537 C.ar     1 ZINC000066361645    0.0700
7      C7      1.1362   -1.8956   -3.2346 C.ar     1 ZINC000066361645   -0.1100
8      C8      1.0607   -1.7084   -1.8633 C.ar     1 ZINC000066361645    0.1800
9      N9      0.6089   -2.7478   -1.0362 N.am     1 ZINC000066361645   -0.6600
10     C10     0.7213   -4.0284   -1.4409 C.2      1 ZINC000066361645    0.5100
11     O11     1.3025   -4.2895   -2.4732 O.2      1 ZINC000066361645   -0.5000
12     C12     0.1250   -5.1360   -0.6111 C.3      1 ZINC000066361645   -0.1500
13     C13     0.3916   -6.4814   -1.2891 C.3      1 ZINC000066361645    0.1600
14     H14     0.0155   -6.4538   -2.3117 H        1 ZINC000066361645    0.1000
15     C15    -0.3192   -7.5928   -0.5141 C.3      1 ZINC000066361645   -0.1600
16     N16     1.8330   -6.7427   -1.3057 N.am     1 ZINC000066361645   -0.7200
17     C17     2.3598   -7.5557   -2.2428 C.2      1 ZINC000066361645    0.5300
18     O18     1.6404   -8.0711   -3.0721 O.2      1 ZINC000066361645   -0.5400
19     C19     3.8425   -7.8244   -2.2599 C.3      1 ZINC000066361645   -0.1100
20     C20     4.2596   -8.4675   -0.9358 C.3      1 ZINC000066361645   -0.1100
21     C21     5.7650   -8.7403   -0.9532 C.3      1 ZINC000066361645   -0.1200
22     C22     6.0983   -9.6876   -2.1075 C.3      1 ZINC000066361645   -0.1200
23     C23     5.6812   -9.0445   -3.4317 C.3      1 ZINC000066361645   -0.1200
24     C24     4.1758   -8.7717   -3.4143 C.3      1 ZINC000066361645   -0.1000
25     O25     1.6624   -1.0764   -5.3980 O.3      1 ZINC000066361645   -0.3000
26     C26     1.7579    0.0885   -6.2246 C.3      1 ZINC000066361645    0.0200
27     C27     2.8079    1.0263   -5.6136 C.3      1 ZINC000066361645    0.0200
28     O28     2.3836    1.3725   -4.2908 O.3      1 ZINC000066361645   -0.3100
29     H29     2.9083    1.5671    0.2607 H        1 ZINC000066361645    0.0900
30     H30     1.2332    2.1427    0.0844 H        1 ZINC000066361645    0.0900
31     H31     1.8703    1.7384    1.6965 H        1 ZINC000066361645    0.1100
32     H32     2.1533    1.4929   -1.6994 H        1 ZINC000066361645    0.1400
33     H33     0.8503   -2.8436   -3.6657 H        1 ZINC000066361645    0.1600
34     H34     0.2156   -2.5447   -0.1731 H        1 ZINC000066361645    0.4100
35     H35     0.5788   -5.1323    0.3799 H        1 ZINC000066361645    0.1000
36     H36    -0.9502   -4.9824   -0.5189 H        1 ZINC000066361645    0.1200
37     H37     0.0569   -7.6204    0.5086 H        1 ZINC000066361645    0.0600
38     H38    -1.3916   -7.3984   -0.5017 H        1 ZINC000066361645    0.0700
39     H39    -0.1292   -8.5513   -0.9971 H        1 ZINC000066361645    0.0700
40     H40     2.4084   -6.3305   -0.6424 H        1 ZINC000066361645    0.4000
41     H41     4.3804   -6.8858   -2.3933 H        1 ZINC000066361645    0.1000
42     H42     4.0222   -7.7927   -0.1134 H        1 ZINC000066361645    0.0600
43     H43     3.7218   -9.4062   -0.8024 H        1 ZINC000066361645    0.0700
44     H44     6.3028   -7.8017   -1.0866 H        1 ZINC000066361645    0.0600
45     H45     6.0622   -9.1985   -0.0099 H        1 ZINC000066361645    0.0700
46     H46     7.1708   -9.8819   -2.1199 H        1 ZINC000066361645    0.0600
47     H47     5.5605  -10.6262   -1.9742 H        1 ZINC000066361645    0.0600
48     H48     6.2191   -8.1058   -3.5650 H        1 ZINC000066361645    0.0600
49     H49     5.9187   -9.7193   -4.2541 H        1 ZINC000066361645    0.0700
50     H50     3.6380   -9.7103   -3.2809 H        1 ZINC000066361645    0.0700
51     H51     3.8787   -8.3135   -4.3576 H        1 ZINC000066361645    0.0700
52     H52     2.0628   -0.1987   -7.2309 H        1 ZINC000066361645    0.1300
53     H53     0.7922    0.5927   -6.2623 H        1 ZINC000066361645    0.0800
54     H54     3.7720    0.5198   -5.5697 H        1 ZINC000066361645    0.0800
55     H55     2.8929    1.9280   -6.2202 H        1 ZINC000066361645    0.1200
@<TRIPOS>BOND
1     1     2     1
2     1     29    1
3     1     30    1
4     1     31    1
5     2     3     1
6     3     8     ar
7     3     4     ar
8     4     5     ar
9     4     32    1
10    5     28    1
11    5     6     ar
12    6     7     ar
13    6     25    1
14    7     8     ar
15    7     33    1
16    8     9     1
17    9     10    am
18    9     34    1
19    10    11    2
20    10    12    1
21    12    13    1
22    12    35    1
23    12    36    1
24    13    14    1
25    13    15    1
26    13    16    1
27    15    37    1
28    15    38    1
29    15    39    1
30    16    17    am
31    16    40    1
32    17    18    2
33    17    19    1
34    19    24    1
35    19    20    1
36    19    41    1
37    20    21    1
38    20    42    1
39    20    43    1
40    21    22    1
41    21    44    1
42    21    45    1
43    22    23    1
44    22    46    1
45    22    47    1
46    23    24    1
47    23    48    1
48    23    49    1
49    24    50    1
50    24    51    1
51    25    26    1
52    26    27    1
53    26    52    1
54    26    53    1
55    27    28    1
56    27    54    1
57    27    55    1
@<TRIPOS>SUBSTRUCTURE
1   ZINC000066361645 1     RESIDUE    1   A     ZIN   1
@<TRIPOS>MOLECULE
ZINC001004075025
52	54	1	0	0
SMALL
USER_CHARGES
@<TRIPOS>ATOM
1      C1     -0.0187    1.5258    0.0104 C.3      1 ZINC001004075025   -0.1500
2      C2      0.0021   -0.0041    0.0020 C.3      1 ZINC001004075025   -0.1200
3      C3     -1.4333   -0.5336    0.0129 C.3      1 ZINC001004075025    0.0800
4      H4     -2.0021   -0.1002   -0.8097 H        1 ZINC001004075025    0.0700
5      C5     -1.4368   -2.0799   -0.0869 C.3      1 ZINC001004075025   -0.1500
6      C6     -2.8029   -2.4147    0.5717 C.3      1 ZINC001004075025   -0.1400
7      C7     -2.9237   -1.3178    1.6514 C.3      1 ZINC001004075025    0.0700
8      H8     -2.6115   -1.7140    2.6176 H        1 ZINC001004075025    0.1100
9      C9     -4.3491   -0.8356    1.7330 C.2      1 ZINC001004075025    0.5300
10     O10    -4.6208    0.3075    1.4325 O.2      1 ZINC001004075025   -0.5200
11     N11    -5.3221   -1.6747    2.1401 N.am     1 ZINC001004075025   -0.6500
12     C12    -5.3962   -3.0760    2.5803 C.3      1 ZINC001004075025    0.1100
13     C13    -6.8450   -3.1018    2.0737 C.3      1 ZINC001004075025   -0.1400
14     C14    -7.8148   -3.8566    2.9851 C.3      1 ZINC001004075025    0.1300
15     N15    -9.1333   -3.9196    2.3496 N.am     1 ZINC001004075025   -0.7200
16     C16   -10.1532   -4.5416    2.9737 C.2      1 ZINC001004075025    0.6000
17     O17    -9.9789   -5.0505    4.0643 O.2      1 ZINC001004075025   -0.5300
18     C18   -11.4798   -4.6049    2.3343 C.2      1 ZINC001004075025   -0.2700
19     C19   -12.6322   -5.1825    2.8086 C.2      1 ZINC001004075025    0.0700
20     C20   -12.8084   -5.9012    4.1214 C.3      1 ZINC001004075025   -0.0300
21     C21   -13.8757   -5.1880    4.9540 C.3      1 ZINC001004075025   -0.1500
22     C22   -13.2462   -7.3435    3.8586 C.3      1 ZINC001004075025   -0.1500
23     O23   -13.5651   -4.9807    1.8753 O.3      1 ZINC001004075025    0.1000
24     N24   -13.1541   -4.3736    0.9170 N.2      1 ZINC001004075025   -0.3500
25     C25   -11.8979   -4.0595    1.0337 C.2      1 ZINC001004075025    0.0200
26     C26    -6.7758   -1.5901    2.3459 C.3      1 ZINC001004075025    0.1100
27     O27    -2.0654   -0.2352    1.2678 O.3      1 ZINC001004075025   -0.3400
28     H28     1.0039    1.9031    0.0027 H        1 ZINC001004075025    0.0600
29     H29    -0.5459    1.8868   -0.8726 H        1 ZINC001004075025    0.0500
30     H30    -0.5289    1.8773    0.9072 H        1 ZINC001004075025    0.0600
31     H31     0.5123   -0.3556   -0.8948 H        1 ZINC001004075025    0.0800
32     H32     0.5293   -0.3651    0.8851 H        1 ZINC001004075025    0.0700
33     H33    -1.4114   -2.4065   -1.1265 H        1 ZINC001004075025    0.0900
34     H34    -0.6115   -2.5119    0.4790 H        1 ZINC001004075025    0.0900
35     H35    -3.6128   -2.3361   -0.1535 H        1 ZINC001004075025    0.0800
36     H36    -2.7822   -3.4053    1.0259 H        1 ZINC001004075025    0.0900
37     H37    -4.7314   -3.7402    2.0281 H        1 ZINC001004075025    0.0900
38     H38    -5.3118   -3.1968    3.6603 H        1 ZINC001004075025    0.0900
39     H39    -6.9459   -3.3689    1.0218 H        1 ZINC001004075025    0.1100
40     H40    -7.4436   -4.8677    3.1527 H        1 ZINC001004075025    0.0800
41     H41    -7.8960   -3.3365    3.9395 H        1 ZINC001004075025    0.0800
42     H42    -9.2723   -3.5136    1.4796 H        1 ZINC001004075025    0.4000
43     H43   -11.8637   -5.9016    4.6651 H        1 ZINC001004075025    0.1300
44     H44   -14.8204   -5.1876    4.4104 H        1 ZINC001004075025    0.0600
45     H45   -14.0031   -5.7078    5.9036 H        1 ZINC001004075025    0.0700
46     H46   -13.5638   -4.1605    5.1413 H        1 ZINC001004075025    0.0600
47     H47   -14.1909   -7.3431    3.3149 H        1 ZINC001004075025    0.0600
48     H48   -12.4858   -7.8516    3.2654 H        1 ZINC001004075025    0.0600
49     H49   -13.3736   -7.8633    4.8081 H        1 ZINC001004075025    0.0700
50     H50   -11.2892   -3.5191    0.3238 H        1 ZINC001004075025    0.2000
51     H51    -7.0586   -1.3188    3.3630 H        1 ZINC001004075025    0.0900
52     H52    -7.2847   -0.9896    1.5919 H        1 ZINC001004075025    0.0800
@<TRIPOS>BOND
1     1     2     1
2     1     28    1
3     1     29    1
4     1     30    1
5     2     3     1
6     2     31    1
7     2     32    1
8     3     4     1
9     3     27    1
10    3     5     1
11    5     6     1
12    5     33    1
13    5     34    1
14    6     7     1
15    6     35    1
16    6     36    1
17    7     8     1
18    7     9     1
19    7     27    1
20    9     10    2
21    9     11    am
22    11    26    1
23    11    12    1
24    12    13    1
25    12    37    1
26    12    38    1
27    13    14    1
28    13    26    1
29    13    39    1
30    14    15    1
31    14    40    1
32    14    41    1
33    15    16    am
34    15    42    1
35    16    17    2
36    16    18    1
37    18    25    1
38    18    19    2
39    19    20    1
40    19    23    1
41    20    21    1
42    20    22    1
43    20    43    1
44    21    44    1
45    21    45    1
46    21    46    1
47    22    47    1
48    22    48    1
49    22    49    1
50    23    24    1
51    24    25    2
52    25    50    1
53    26    51    1
54    26    52    1
@<TRIPOS>SUBSTRUCTURE
1   ZINC001004075025 1     RESIDUE    1   A     ZIN   1
@<TRIPOS>MOLECULE
ZINC000002873519
37	39	1	0	0
SMALL
USER_CHARGES
@<TRIPOS>ATOM
1      C1     -3.1447   -0.0341   -1.6710 C.3      1 ZINC000002873519   -0.1500
2      C2     -2.2372   -1.2352   -1.5996 C.2      1 ZINC000002873519    0.4500
3      O3     -2.6301   -2.3127   -1.9797 O.2      1 ZINC000002873519   -0.4800
4      O4     -0.9918   -1.1078   -1.1137 O.3      1 ZINC000002873519   -0.2900
5      C5     -0.2629   -2.2450   -0.9807 C.ar     1 ZINC000002873519    0.1200
6      C6     -0.0971   -2.8233    0.2667 C.ar     1 ZINC000002873519   -0.1100
7      C7      0.6447   -3.9816    0.4019 C.ar     1 ZINC000002873519   -0.0800
8      C8      1.2294   -4.5758   -0.7065 C.ar     1 ZINC000002873519   -0.0400
9      Cl9     2.1573   -6.0308   -0.5178 Cl       1 ZINC000002873519   -0.0500
10     C10     1.0770   -4.0169   -1.9571 C.ar     1 ZINC000002873519   -0.0800
11     C11     0.3230   -2.8453   -2.1102 C.ar     1 ZINC000002873519   -0.0700
12     C12     0.1552   -2.2447   -3.4342 C.2      1 ZINC000002873519    0.0400
13     C13     0.1367   -3.0463   -4.5588 C.2      1 ZINC000002873519   -0.1900
14     C14     0.1220   -4.5181   -4.6194 C.2      1 ZINC000002873519   -0.2000
15     C15     0.1063   -4.8470   -5.9283 C.2      1 ZINC000002873519    0.1200
16     C16     0.0877   -6.2321   -6.4392 C.ar     1 ZINC000002873519   -0.0400
17     C17     0.0797   -7.3081   -5.5486 C.ar     1 ZINC000002873519   -0.0800
18     C18     0.0624   -8.5994   -6.0322 C.ar     1 ZINC000002873519   -0.1100
19     C19     0.0533   -8.8306   -7.3977 C.ar     1 ZINC000002873519   -0.0200
20     Cl20    0.0315  -10.4592   -7.9984 Cl       1 ZINC000002873519   -0.0600
21     C21     0.0611   -7.7681   -8.2860 C.ar     1 ZINC000002873519   -0.1100
22     C22     0.0721   -6.4719   -7.8152 C.ar     1 ZINC000002873519   -0.0800
23     O23     0.1092   -3.7481   -6.7092 O.3      1 ZINC000002873519   -0.2600
24     C24     0.1206   -2.6230   -5.9720 C.2      1 ZINC000002873519    0.5200
25     O25     0.1255   -1.4800   -6.3892 O.2      1 ZINC000002873519   -0.4200
26     H26    -3.7110    0.0489   -0.7434 H        1 ZINC000002873519    0.1100
27     H27    -2.5461    0.8656   -1.8131 H        1 ZINC000002873519    0.1000
28     H28    -3.8333   -0.1483   -2.5082 H        1 ZINC000002873519    0.1100
29     H29    -0.5483   -2.3679    1.1359 H        1 ZINC000002873519    0.1500
30     H30     0.7702   -4.4270    1.3777 H        1 ZINC000002873519    0.1500
31     H31     1.5344   -4.4826   -2.8175 H        1 ZINC000002873519    0.1500
32     H32     0.0458   -1.1747   -3.5319 H        1 ZINC000002873519    0.1500
33     H33     0.1241   -5.1997   -3.7817 H        1 ZINC000002873519    0.1700
34     H34     0.0875   -7.1291   -4.4835 H        1 ZINC000002873519    0.1400
35     H35     0.0562   -9.4323   -5.3446 H        1 ZINC000002873519    0.1400
36     H36     0.0543   -7.9550   -9.3497 H        1 ZINC000002873519    0.1400
37     H37     0.0782   -5.6442   -8.5089 H        1 ZINC000002873519    0.1400
@<TRIPOS>BOND
1     1     2     1
2     1     26    1
3     1     27    1
4     1     28    1
5     2     3     2
6     2     4     1
7     4     5     1
8     5     11    ar
9     5     6     ar
10    6     7     ar
11    6     29    1
12    7     8     ar
13    7     30    1
14    8     9     1
15    8     10    ar
16    10    11    ar
17    10    31    1
18    11    12    1
19    12    13    2
20    12    32    1
21    13    24    1
22    13    14    1
23    14    15    2
24    14    33    1
25    15    16    1
26    15    23    1
27    16    22    ar
28    16    17    ar
29    17    18    ar
30    17    34    1
31    18    19    ar
32    18    35    1
33    19    20    1
34    19    21    ar
35    21    22    ar
36    21    36    1
37    22    37    1
38    23    24    1
39    24    25    2
@<TRIPOS>SUBSTRUCTURE
1   ZINC000002873519 1     RESIDUE    1   A     ZIN   1
@<TRIPOS>MOLECULE
ZINC001110536231
51	53	1	0	0
SMALL
USER_CHARGES
@<TRIPOS>ATOM
1      C1      0.6458    0.6875   -0.1268 C.3      1 ZINC001110536231   -0.1300
2      C2      0.1391   -0.7513   -0.0086 C.3      1 ZINC001110536231   -0.1000
3      C3     -1.3678   -0.7533    0.0094 C.2      1 ZINC001110536231   -0.0200
4      C4     -2.1056   -0.7593    1.3235 C.3      1 ZINC001110536231   -0.1300
5      C5     -2.0466   -0.7497   -1.1343 C.2      1 ZINC001110536231   -0.2400
6      C6     -1.3342   -0.5939   -2.4118 C.2      1 ZINC001110536231    0.5400
7      O7     -0.1429   -0.3495   -2.4179 O.2      1 ZINC001110536231   -0.5300
8      N8     -2.0018   -0.7220   -3.5756 N.am     1 ZINC001110536231   -0.7300
9      C9     -1.2923   -0.5668   -4.8479 C.3      1 ZINC001110536231    0.1100
10     H10    -0.2735   -0.9456   -4.7665 H        1 ZINC001110536231    0.1000
11     C11    -1.2885    0.9163   -5.2926 C.3      1 ZINC001110536231   -0.1600
12     C12    -2.0543    0.8917   -6.6497 C.3      1 ZINC001110536231    0.0500
13     H13    -2.4804    1.8435   -6.9671 H        1 ZINC001110536231    0.1200
14     C14    -1.0695    0.2258   -7.6576 C.3      1 ZINC001110536231   -0.1200
15     C15    -1.0562   -1.2601   -7.2225 C.3      1 ZINC001110536231   -0.1100
16     C16    -2.0577   -1.2930   -5.9950 C.3      1 ZINC001110536231    0.0400
17     H17    -2.4772   -2.2702   -5.7559 H        1 ZINC001110536231    0.1200
18     N18    -3.0401   -0.2208   -6.4043 N.3      1 ZINC001110536231   -0.4900
19     C19    -3.9564    0.1020   -5.3023 C.3      1 ZINC001110536231    0.0600
20     C20    -5.0657    0.9846   -5.8137 C.ar     1 ZINC001110536231    0.0100
21     C21    -4.9359    2.3663   -5.8024 C.ar     1 ZINC001110536231   -0.2100
22     C22    -5.9713    3.1460   -6.2787 C.ar     1 ZINC001110536231    0.1400
23     N23    -7.0763    2.5935   -6.7417 N.ar     1 ZINC001110536231   -0.5400
24     C24    -7.2372    1.2808   -6.7688 C.ar     1 ZINC001110536231    0.3200
25     O25    -8.3901    0.7551   -7.2540 O.3      1 ZINC001110536231   -0.3100
26     C26    -9.3797    1.6769   -7.7155 C.3      1 ZINC001110536231    0.0400
27     C27    -6.2352    0.4354   -6.3106 C.ar     1 ZINC001110536231   -0.1700
28     H28     1.7357    0.6889   -0.1399 H        1 ZINC001110536231    0.0500
29     H29     0.2708    1.1301   -1.0496 H        1 ZINC001110536231    0.0700
30     H30     0.2919    1.2685    0.7248 H        1 ZINC001110536231    0.0400
31     H31     0.4930   -1.3323   -0.8603 H        1 ZINC001110536231    0.0900
32     H32     0.5141   -1.1939    0.9142 H        1 ZINC001110536231    0.0600
33     H33    -2.2848    0.2669    1.6443 H        1 ZINC001110536231    0.0800
34     H34    -3.0589   -1.2739    1.2026 H        1 ZINC001110536231    0.0700
35     H35    -1.5068   -1.2753    2.0740 H        1 ZINC001110536231    0.0700
36     H36    -3.1208   -0.8611   -1.1250 H        1 ZINC001110536231    0.1200
37     H37    -2.9520   -0.9169   -3.5708 H        1 ZINC001110536231    0.4000
38     H38    -1.8145    1.5360   -4.5664 H        1 ZINC001110536231    0.0700
39     H39    -0.2679    1.2718   -5.4343 H        1 ZINC001110536231    0.0800
40     H40    -1.4403    0.3236   -8.6779 H        1 ZINC001110536231    0.0700
41     H41    -0.0745    0.6613   -7.5664 H        1 ZINC001110536231    0.0700
42     H42    -1.4203   -1.8988   -8.0272 H        1 ZINC001110536231    0.0800
43     H43    -0.0545   -1.5611   -6.9157 H        1 ZINC001110536231    0.0700
44     H44    -4.3802   -0.8184   -4.9007 H        1 ZINC001110536231    0.0900
45     H45    -3.4101    0.6237   -4.5165 H        1 ZINC001110536231    0.0700
46     H46    -4.0349    2.8268   -5.4248 H        1 ZINC001110536231    0.1300
47     H47    -5.8754    4.2217   -6.2719 H        1 ZINC001110536231    0.1600
48     H48   -10.2487    1.1266   -8.0762 H        1 ZINC001110536231    0.1000
49     H49    -9.6780    2.3304   -6.8957 H        1 ZINC001110536231    0.0600
50     H50    -8.9672    2.2769   -8.5267 H        1 ZINC001110536231    0.0600
51     H51    -6.3697   -0.6359   -6.3345 H        1 ZINC001110536231    0.1400
@<TRIPOS>BOND
1     1     2     1
2     1     28    1
3     1     29    1
4     1     30    1
5     2     3     1
6     2     31    1
7     2     32    1
8     3     4     1
9     3     5     2
10    4     33    1
11    4     34    1
12    4     35    1
13    5     6     1
14    5     36    1
15    6     7     2
16    6     8     am
17    8     9     1
18    8     37    1
19    9     10    1
20    9     16    1
21    9     11    1
22    11    12    1
23    11    38    1
24    11    39    1
25    12    13    1
26    12    18    1
27    12    14    1
28    14    15    1
29    14    40    1
30    14    41    1
31    15    16    1
32    15    42    1
33    15    43    1
34    16    17    1
35    16    18    1
36    18    19    1
37    19    20    1
38    19    44    1
39    19    45    1
40    20    27    ar
41    20    21    ar
42    21    22    ar
43    21    46    1
44    22    23    ar
45    22    47    1
46    23    24    ar
47    24    25    1
48    24    27    ar
49    25    26    1
50    26    48    1
51    26    49    1
52    26    50    1
53    27    51    1
@<TRIPOS>SUBSTRUCTURE
1   ZINC001110536231 1     RESIDUE    1   A     ZIN   1
@<TRIPOS>MOLECULE
ZINC000770814339
47	48	1	0	0
SMALL
USER_CHARGES
@<TRIPOS>ATOM
1      C1     -0.0187    1.5258    0.0104 C.3      1 ZINC000770814339   -0.1500
2      C2      0.0021   -0.0041    0.0020 C.3      1 ZINC000770814339    0.0600
3      O3     -1.3601   -0.5067    0.0123 O.3      1 ZINC000770814339   -0.3500
4      C4     -1.5179   -1.8396    0.0067 C.2      1 ZINC000770814339    0.4700
5      O5     -0.5499   -2.5625   -0.0065 O.2      1 ZINC000770814339   -0.4800
6      C6     -2.9025   -2.4345    0.0167 C.3      1 ZINC000770814339    0.0700
7      O7     -2.8084   -3.8604    0.0081 O.3      1 ZINC000770814339   -0.1800
8      N8     -4.0612   -4.5203    0.0166 N.2      1 ZINC000770814339   -0.2800
9      C9     -4.1117   -5.8224    0.0100 C.2      1 ZINC000770814339    0.1800
10     C10    -5.4229   -6.5132    0.0189 C.2      1 ZINC000770814339    0.5900
11     O11    -5.4700   -7.7273    0.0128 O.2      1 ZINC000770814339   -0.5100
12     N12    -6.5630   -5.7946    0.0336 N.am     1 ZINC000770814339   -0.7000
13     C13    -7.8591   -6.4774    0.0423 C.3      1 ZINC000770814339    0.1500
14     C14    -8.9657   -5.4545    0.0584 C.ar     1 ZINC000770814339   -0.0600
15     C15    -9.4579   -4.9875    1.2628 C.ar     1 ZINC000770814339   -0.1200
16     C16   -10.4729   -4.0492    1.2775 C.ar     1 ZINC000770814339   -0.0200
17     C17   -10.9954   -3.5775    0.0878 C.ar     1 ZINC000770814339   -0.6700
18     S18   -12.2896   -2.3819    0.1066 S.o2     1 ZINC000770814339    2.7000
19     N19   -11.5764   -0.8874    0.1012 N.am     1 ZINC000770814339   -1.2500
20     O20   -12.9692   -2.5067   -1.1351 O.2      1 ZINC000770814339   -0.9600
21     O21   -12.9382   -2.5125    1.3642 O.2      1 ZINC000770814339   -0.9600
22     C22   -10.5023   -4.0434   -1.1166 C.ar     1 ZINC000770814339   -0.0200
23     C23    -9.4846   -4.9789   -1.1313 C.ar     1 ZINC000770814339   -0.1200
24     C24    -2.8627   -6.6096   -0.0061 C.2      1 ZINC000770814339    0.0600
25     C25    -1.5788   -6.1082   -0.0101 C.2      1 ZINC000770814339   -0.2000
26     C26    -0.7014   -7.1914   -0.0257 C.2      1 ZINC000770814339    0.0400
27     N27    -1.4008   -8.2980   -0.0311 N.2      1 ZINC000770814339   -0.2600
28     N28    -2.7622   -7.9704   -0.0139 N.pl3    1 ZINC000770814339   -0.4400
29     H29     1.0039    1.9031    0.0027 H        1 ZINC000770814339    0.0800
30     H30    -0.5459    1.8868   -0.8726 H        1 ZINC000770814339    0.0700
31     H31    -0.5289    1.8773    0.9072 H        1 ZINC000770814339    0.0700
32     H32     0.5123   -0.3556   -0.8948 H        1 ZINC000770814339    0.0700
33     H33     0.5293   -0.3651    0.8851 H        1 ZINC000770814339    0.0700
34     H34    -3.4306   -2.1106    0.9135 H        1 ZINC000770814339    0.1100
35     H35    -3.4476   -2.1011   -0.8663 H        1 ZINC000770814339    0.1100
36     H36    -6.5254   -4.8253    0.0384 H        1 ZINC000770814339    0.4100
37     H37    -7.9496   -7.0965   -0.8502 H        1 ZINC000770814339    0.0900
38     H38    -7.9326   -7.1061    0.9297 H        1 ZINC000770814339    0.0900
39     H39    -9.0497   -5.3561    2.1923 H        1 ZINC000770814339    0.1400
40     H40   -10.8579   -3.6850    2.2185 H        1 ZINC000770814339    0.1500
41     H41   -12.0292   -0.1354   -0.3115 H        1 ZINC000770814339    0.4200
42     H42   -10.7058   -0.7640    0.5108 H        1 ZINC000770814339    0.4200
43     H43   -10.9102   -3.6746   -2.0461 H        1 ZINC000770814339    0.1500
44     H44    -9.0993   -5.3429   -2.0723 H        1 ZINC000770814339    0.1400
45     H45    -1.3023   -5.0642   -0.0028 H        1 ZINC000770814339    0.1700
46     H46     0.3767   -7.1281   -0.0326 H        1 ZINC000770814339    0.1900
47     H47    -3.5015   -8.5983   -0.0135 H        1 ZINC000770814339    0.4500
@<TRIPOS>BOND
1     1     2     1
2     1     29    1
3     1     30    1
4     1     31    1
5     2     3     1
6     2     32    1
7     2     33    1
8     3     4     1
9     4     5     2
10    4     6     1
11    6     7     1
12    6     34    1
13    6     35    1
14    7     8     1
15    8     9     2
16    9     10    1
17    9     24    1
18    10    11    2
19    10    12    am
20    12    13    1
21    12    36    1
22    13    14    1
23    13    37    1
24    13    38    1
25    14    23    ar
26    14    15    ar
27    15    16    ar
28    15    39    1
29    16    17    ar
30    16    40    1
31    17    18    1
32    17    22    ar
33    18    19    am
34    18    20    2
35    18    21    2
36    19    41    1
37    19    42    1
38    22    23    ar
39    22    43    1
40    23    44    1
41    24    28    1
42    24    25    2
43    25    26    1
44    25    45    1
45    26    27    2
46    26    46    1
47    27    28    1
48    28    47    1
@<TRIPOS>SUBSTRUCTURE
1   ZINC000770814339 1     RESIDUE    1   A     ZIN   1
@<TRIPOS>MOLECULE
ZINC000676204775
46	49	1	0	0
SMALL
USER_CHARGES
@<TRIPOS>ATOM
1      C1     -0.0187    1.5258    0.0104 C.3      1 ZINC000676204775   -0.1600
2      C2      0.0021   -0.0041    0.0020 C.3      1 ZINC000676204775    0.1600
3      C3     -1.4333   -0.5336    0.0129 C.3      1 ZINC000676204775   -0.1600
4      N4      0.6878   -0.4765   -1.2033 N.pl3    1 ZINC000676204775   -0.3900
5      N5      0.2981   -0.2030   -2.5185 N.2      1 ZINC000676204775   -0.2500
6      C6      1.1193   -0.7697   -3.3556 C.2      1 ZINC000676204775    0.0900
7      C7      2.1331   -1.4743   -2.5776 C.ar     1 ZINC000676204775   -0.2100
8      C8      3.2504   -2.2480   -2.9100 C.ar     1 ZINC000676204775    0.0800
9      C9      4.0196   -2.7840   -1.9179 C.ar     1 ZINC000676204775   -0.7200
10     S10     5.4273   -3.7582   -2.3350 S.o2     1 ZINC000676204775    2.6900
11     O11     5.6792   -4.5986   -1.2172 O.2      1 ZINC000676204775   -0.9300
12     O12     5.1964   -4.2564   -3.6456 O.2      1 ZINC000676204775   -0.9600
13     N13     6.7198   -2.7290   -2.4470 N.am     1 ZINC000676204775   -1.1100
14     C14     7.1949   -2.0176   -1.2577 C.3      1 ZINC000676204775    0.2400
15     H15     6.3810   -1.9174   -0.5396 H        1 ZINC000676204775    0.1000
16     C16     7.7073   -0.6280   -1.6563 C.3      1 ZINC000676204775   -0.1200
17     C17     8.4206    0.0204   -0.4678 C.3      1 ZINC000676204775   -0.1200
18     C18     9.7624   -0.6815   -0.2237 C.3      1 ZINC000676204775   -0.0400
19     C19     9.5119   -2.1681   -0.1618 C.2      1 ZINC000676204775   -0.2300
20     C20    10.3167   -3.1305    0.3253 C.2      1 ZINC000676204775    0.0600
21     N21     9.6784   -4.3127    0.1747 N.pl3    1 ZINC000676204775   -0.4800
22     N22     8.4366   -4.0611   -0.4283 N.2      1 ZINC000676204775   -0.2400
23     C23     8.3366   -2.7802   -0.6303 C.2      1 ZINC000676204775    0.0500
24     C24     3.7033   -2.5685   -0.5824 C.ar     1 ZINC000676204775    0.0100
25     C25     2.6174   -1.8166   -0.2328 C.ar     1 ZINC000676204775   -0.1500
26     C26     1.8173   -1.2524   -1.2230 C.ar     1 ZINC000676204775    0.1700
27     H27     1.0039    1.9031    0.0027 H        1 ZINC000676204775    0.0600
28     H28    -0.5459    1.8868   -0.8726 H        1 ZINC000676204775    0.0700
29     H29    -0.5289    1.8773    0.9072 H        1 ZINC000676204775    0.0800
30     H30     0.5293   -0.3651    0.8851 H        1 ZINC000676204775    0.1000
31     H31    -1.9605   -0.1726   -0.8702 H        1 ZINC000676204775    0.0700
32     H32    -1.4185   -1.6235    0.0069 H        1 ZINC000676204775    0.0600
33     H33    -1.9435   -0.1821    0.9097 H        1 ZINC000676204775    0.0800
34     H34     1.0604   -0.7261   -4.4331 H        1 ZINC000676204775    0.2000
35     H35     3.5027   -2.4204   -3.9458 H        1 ZINC000676204775    0.1500
36     H36     7.1624   -2.5972   -3.3001 H        1 ZINC000676204775    0.4200
37     H37     8.4040   -0.7237   -2.4890 H        1 ZINC000676204775    0.0800
38     H38     6.8660   -0.0043   -1.9584 H        1 ZINC000676204775    0.0800
39     H39     8.5966    1.0746   -0.6818 H        1 ZINC000676204775    0.0700
40     H40     7.7974   -0.0691    0.4220 H        1 ZINC000676204775    0.0700
41     H41    10.4484   -0.4579   -1.0406 H        1 ZINC000676204775    0.0700
42     H42    10.1893   -0.3410    0.7196 H        1 ZINC000676204775    0.0700
43     H43    11.2953   -2.9847    0.7582 H        1 ZINC000676204775    0.1800
44     H44    10.0190   -5.1821    0.4374 H        1 ZINC000676204775    0.4400
45     H45     4.3233   -3.0010    0.1890 H        1 ZINC000676204775    0.1500
46     H46     2.3826   -1.6568    0.8092 H        1 ZINC000676204775    0.1300
@<TRIPOS>BOND
1     1     2     1
2     1     27    1
3     1     28    1
4     1     29    1
5     2     3     1
6     2     4     1
7     2     30    1
8     3     31    1
9     3     32    1
10    3     33    1
11    4     26    1
12    4     5     1
13    5     6     2
14    6     7     1
15    6     34    1
16    7     26    ar
17    7     8     ar
18    8     9     ar
19    8     35    1
20    9     10    1
21    9     24    ar
22    10    11    2
23    10    12    2
24    10    13    am
25    13    14    1
26    13    36    1
27    14    15    1
28    14    23    1
29    14    16    1
30    16    17    1
31    16    37    1
32    16    38    1
33    17    18    1
34    17    39    1
35    17    40    1
36    18    19    1
37    18    41    1
38    18    42    1
39    19    23    1
40    19    20    2
41    20    21    1
42    20    43    1
43    21    22    1
44    21    44    1
45    22    23    2
46    24    25    ar
47    24    45    1
48    25    26    ar
49    25    46    1
@<TRIPOS>SUBSTRUCTURE
1   ZINC000676204775 1     RESIDUE    1   A     ZIN   1
@<TRIPOS>MOLECULE
ZINC000793092912
40	43	1	0	0
SMALL
USER_CHARGES
@<TRIPOS>ATOM
1      C1      3.9201    0.8986   -0.0749 C.3      1 ZINC000793092912   -0.1300
2      C2      3.4418   -0.5375   -0.2981 C.3      1 ZINC000793092912   -0.0800
3      C3      3.0489   -1.2925    0.9624 C.3      1 ZINC000793092912   -0.1100
4      C4      1.6787   -1.9342    0.8505 C.3      1 ZINC000793092912    0.1100
5      N5      1.4651   -2.5371   -0.4543 N.am     1 ZINC000793092912   -0.5700
6      C6      1.1327   -3.8415   -0.5206 C.2      1 ZINC000793092912    0.5100
7      O7      1.1544   -4.5250    0.4820 O.2      1 ZINC000793092912   -0.5100
8      C8      0.7377   -4.4459   -1.8278 C.2      1 ZINC000793092912    0.5100
9      O9      0.5996   -3.7401   -2.8057 O.2      1 ZINC000793092912   -0.4900
10     N10     0.5345   -5.7749   -1.9218 N.am     1 ZINC000793092912   -0.6400
11     C11     0.2518   -6.3530   -3.1635 C.ar     1 ZINC000793092912    0.1600
12     C12     0.7324   -7.6205   -3.4651 C.ar     1 ZINC000793092912   -0.1200
13     C13     0.4539   -8.1929   -4.6916 C.ar     1 ZINC000793092912   -0.0600
14     C14    -0.3048   -7.5041   -5.6240 C.ar     1 ZINC000793092912    0.0200
15     O15    -0.7124   -7.8398   -6.8836 O.3      1 ZINC000793092912   -0.2800
16     C16    -1.7889   -6.9351   -7.1931 C.3      1 ZINC000793092912    0.5700
17     F17    -1.7835   -6.6120   -8.5542 F        1 ZINC000793092912   -0.1100
18     F18    -3.0191   -7.4912   -6.8262 F        1 ZINC000793092912   -0.1500
19     O19    -1.4984   -5.7719   -6.3959 O.3      1 ZINC000793092912   -0.2800
20     C20    -0.7885   -6.2320   -5.3245 C.ar     1 ZINC000793092912    0.0500
21     C21    -0.5145   -5.6617   -4.0934 C.ar     1 ZINC000793092912   -0.0900
22     C22     1.5966   -1.7829   -1.6918 C.3      1 ZINC000793092912    0.1100
23     C23     2.7961   -0.8484   -1.6382 C.3      1 ZINC000793092912   -0.1200
24     H24     2.7458   -0.0062   -2.3283 H        1 ZINC000793092912    0.1400
25     C25     4.1982   -1.3643   -1.3517 C.3      1 ZINC000793092912    0.0000
26     Cl26    5.5689   -0.5815   -2.2230 Cl       1 ZINC000793092912   -0.0800
27     Cl27    4.3873   -3.1275   -1.0253 Cl       1 ZINC000793092912   -0.0900
28     H28     3.0737    1.5805   -0.1577 H        1 ZINC000793092912    0.0800
29     H29     4.3601    0.9847    0.9187 H        1 ZINC000793092912    0.0700
30     H30     4.6671    1.1537   -0.8264 H        1 ZINC000793092912    0.0700
31     H31     3.7883   -2.0704    1.1526 H        1 ZINC000793092912    0.0900
32     H32     3.0458   -0.5984    1.8029 H        1 ZINC000793092912    0.1000
33     H33     1.5842   -2.7039    1.6164 H        1 ZINC000793092912    0.1100
34     H34     0.9163   -1.1735    1.0186 H        1 ZINC000793092912    0.0800
35     H35     0.5843   -6.3305   -1.1282 H        1 ZINC000793092912    0.4300
36     H36     1.3248   -8.1594   -2.7404 H        1 ZINC000793092912    0.1500
37     H37     0.8286   -9.1788   -4.9239 H        1 ZINC000793092912    0.1500
38     H38    -0.8932   -4.6783   -3.8573 H        1 ZINC000793092912    0.1600
39     H39     1.7392   -2.4774   -2.5197 H        1 ZINC000793092912    0.1400
40     H40     0.6841   -1.2110   -1.8601 H        1 ZINC000793092912    0.1000
@<TRIPOS>BOND
1     1     2     1
2     1     28    1
3     1     29    1
4     1     30    1
5     2     23    1
6     2     25    1
7     2     3     1
8     3     4     1
9     3     31    1
10    3     32    1
11    4     5     1
12    4     33    1
13    4     34    1
14    5     6     am
15    5     22    1
16    6     7     2
17    6     8     1
18    8     9     2
19    8     10    am
20    10    11    1
21    10    35    1
22    11    21    ar
23    11    12    ar
24    12    13    ar
25    12    36    1
26    13    14    ar
27    13    37    1
28    14    20    ar
29    14    15    1
30    15    16    1
31    16    17    1
32    16    18    1
33    16    19    1
34    19    20    1
35    20    21    ar
36    21    38    1
37    22    23    1
38    22    39    1
39    22    40    1
40    23    24    1
41    23    25    1
42    25    26    1
43    25    27    1
@<TRIPOS>SUBSTRUCTURE
1   ZINC000793092912 1     RESIDUE    1   A     ZIN   1
@<TRIPOS>MOLECULE
ZINC000269356812
40	41	1	0	0
SMALL
USER_CHARGES
@<TRIPOS>ATOM
1      C1     -0.0228    1.5382    0.0094 C.3      1 ZINC000269356812   -0.1400
2      C2     -0.0024    0.0084   -0.0067 C.3      1 ZINC000269356812    0.2000
3      O3      0.6905   -0.4709    1.1475 O.3      1 ZINC000269356812   -0.5400
4      C4     -1.4379   -0.5209    0.0039 C.3      1 ZINC000269356812    0.0900
5      N5     -2.1574    0.0417    1.1493 N.am     1 ZINC000269356812   -0.6900
6      C6     -3.4472   -0.2863    1.3621 C.2      1 ZINC000269356812    0.5100
7      O7     -4.0126   -1.0477    0.6048 O.2      1 ZINC000269356812   -0.5100
8      C8     -4.1806    0.2872    2.5296 C.2      1 ZINC000269356812    0.5100
9      O9     -3.6150    1.0487    3.2871 O.2      1 ZINC000269356812   -0.4900
10     N10    -5.4704   -0.0408    2.7424 N.am     1 ZINC000269356812   -0.6400
11     C11    -6.1289    0.4176    3.8887 C.ar     1 ZINC000269356812    0.0900
12     C12    -5.8435    1.6795    4.4096 C.ar     1 ZINC000269356812   -0.0600
13     C13    -6.5183    2.0919    5.5433 C.ar     1 ZINC000269356812   -0.1200
14     C14    -7.4535    1.2403    6.1236 C.ar     1 ZINC000269356812    0.1000
15     S15    -8.3210    1.7541    7.5686 S.3      1 ZINC000269356812   -0.0600
16     C16    -9.3935    0.3357    7.9267 C.3      1 ZINC000269356812    0.2900
17     F17   -10.2454    0.1092    6.8403 F        1 ZINC000269356812   -0.1700
18     F18    -8.6068   -0.8000    8.1471 F        1 ZINC000269356812   -0.1700
19     N19    -7.6993    0.0481    5.6015 N.ar     1 ZINC000269356812   -0.4600
20     C20    -7.0780   -0.3753    4.5177 C.ar     1 ZINC000269356812    0.1100
21     C21     0.7008   -0.4715   -1.2501 C.2      1 ZINC000269356812   -0.2300
22     C22     2.0087   -0.7145   -1.3486 C.2      1 ZINC000269356812   -0.1100
23     C23     2.4291   -1.1491   -2.5938 C.2      1 ZINC000269356812   -0.1400
24     C24     1.4626   -1.2592   -3.5065 C.2      1 ZINC000269356812   -0.2000
25     S25    -0.0786   -0.8043   -2.7913 S.3      1 ZINC000269356812    0.1100
26     H26     0.9999    1.9153    0.0019 H        1 ZINC000269356812    0.0800
27     H27    -0.5513    1.9038   -0.8710 H        1 ZINC000269356812    0.0800
28     H28    -0.5314    1.8854    0.9088 H        1 ZINC000269356812    0.0700
29     H29     0.7423   -1.4349    1.2031 H        1 ZINC000269356812    0.3800
30     H30    -1.9394   -0.2295   -0.9190 H        1 ZINC000269356812    0.0900
31     H31    -1.4237   -1.6080    0.0820 H        1 ZINC000269356812    0.0900
32     H32    -1.7055    0.6503    1.7546 H        1 ZINC000269356812    0.4200
33     H33    -5.9422   -0.5947    2.1008 H        1 ZINC000269356812    0.4300
34     H34    -5.1122    2.3194    3.9383 H        1 ZINC000269356812    0.1600
35     H35    -6.3218    3.0628    5.9737 H        1 ZINC000269356812    0.1500
36     H36    -9.9873    0.5447    8.8166 H        1 ZINC000269356812    0.1500
37     H37    -7.3043   -1.3538    4.1205 H        1 ZINC000269356812    0.1700
38     H38     2.6883   -0.5817   -0.5198 H        1 ZINC000269356812    0.1500
39     H39     3.4615   -1.3812   -2.8100 H        1 ZINC000269356812    0.1400
40     H40     1.6042   -1.5818   -4.5274 H        1 ZINC000269356812    0.1700
@<TRIPOS>BOND
1     1     2     1
2     1     26    1
3     1     27    1
4     1     28    1
5     2     3     1
6     2     4     1
7     2     21    1
8     3     29    1
9     4     5     1
10    4     30    1
11    4     31    1
12    5     6     am
13    5     32    1
14    6     7     2
15    6     8     1
16    8     9     2
17    8     10    am
18    10    11    1
19    10    33    1
20    11    20    ar
21    11    12    ar
22    12    13    ar
23    12    34    1
24    13    14    ar
25    13    35    1
26    14    15    1
27    14    19    ar
28    15    16    1
29    16    17    1
30    16    18    1
31    16    36    1
32    19    20    ar
33    20    37    1
34    21    25    1
35    21    22    2
36    22    23    1
37    22    38    1
38    23    24    2
39    23    39    1
40    24    25    1
41    24    40    1
@<TRIPOS>SUBSTRUCTURE
1   ZINC000269356812 1     RESIDUE    1   A     ZIN   1
@<TRIPOS>MOLECULE
ZINC000995593866
48	50	1	0	0
SMALL
USER_CHARGES
@<TRIPOS>ATOM
1      C1     -0.0187    1.5258    0.0104 C.3      1 ZINC000995593866   -0.1400
2      C2      0.0021   -0.0041    0.0020 C.3      1 ZINC000995593866   -0.0800
3      C3     -1.4249   -0.5542   -0.0418 C.3      1 ZINC000995593866   -0.1400
4      C4      0.8170   -0.5232   -1.2022 C.3      1 ZINC000995593866    0.1200
5      N5      2.1766   -0.7549   -0.6614 N.am     1 ZINC000995593866   -0.6300
6      C6      3.3581   -0.4990   -1.2574 C.2      1 ZINC000995593866    0.5400
7      O7      3.3842   -0.0209   -2.3717 O.2      1 ZINC000995593866   -0.5300
8      C8      4.6466   -0.8070   -0.5392 C.3      1 ZINC000995593866   -0.1300
9      C9      5.8307   -0.4248   -1.4296 C.3      1 ZINC000995593866   -0.1000
10     C10     6.2684    1.0415   -1.2766 C.3      1 ZINC000995593866   -0.1300
11     C11     7.7180    0.5358   -1.3639 C.3      1 ZINC000995593866   -0.1400
12     C12     7.1964   -0.8119   -0.8381 C.3      1 ZINC000995593866   -0.1400
13     C13     1.9430   -1.3318    0.6829 C.3      1 ZINC000995593866    0.1100
14     C14     0.7445   -0.5372    1.2450 C.3      1 ZINC000995593866    0.0800
15     H15     1.0944    0.2907    1.8615 H        1 ZINC000995593866    0.0700
16     N16    -0.1320   -1.4198    2.0265 N.3      1 ZINC000995593866   -0.6800
17     C17     0.3244   -1.5158    3.4195 C.3      1 ZINC000995593866    0.1500
18     C18    -0.5970   -2.4273    4.1883 C.2      1 ZINC000995593866    0.1900
19     N19    -0.4680   -3.7238    4.3365 N.2      1 ZINC000995593866   -0.4300
20     C20    -1.5128   -4.1077    5.0915 C.2      1 ZINC000995593866    0.0900
21     C21    -1.8175   -5.5123    5.5445 C.3      1 ZINC000995593866    0.3800
22     F22    -3.2009   -5.6678    5.6829 F        1 ZINC000995593866   -0.1800
23     F23    -1.3385   -6.4224    4.5961 F        1 ZINC000995593866   -0.1700
24     N24    -2.2109   -3.0448    5.3589 N.2      1 ZINC000995593866   -0.3400
25     O25    -1.6986   -2.0680    4.8542 O.3      1 ZINC000995593866    0.1000
26     H26     1.0039    1.9031    0.0027 H        1 ZINC000995593866    0.0600
27     H27    -0.5459    1.8868   -0.8726 H        1 ZINC000995593866    0.0600
28     H28    -0.5289    1.8773    0.9072 H        1 ZINC000995593866    0.0600
29     H29    -1.9274   -0.1900   -0.9379 H        1 ZINC000995593866    0.0700
30     H30    -1.3940   -1.6436   -0.0599 H        1 ZINC000995593866    0.0700
31     H31    -1.9701   -0.2208    0.8413 H        1 ZINC000995593866    0.0600
32     H32     0.3923   -1.4552   -1.5751 H        1 ZINC000995593866    0.0800
33     H33     0.8452    0.2261   -1.9933 H        1 ZINC000995593866    0.0900
34     H34     4.6907   -0.2366    0.3886 H        1 ZINC000995593866    0.0900
35     H35     4.6910   -1.8724   -0.3132 H        1 ZINC000995593866    0.0900
36     H36     5.6993   -0.7368   -2.4656 H        1 ZINC000995593866    0.1000
37     H37     5.9755    1.6742   -2.1145 H        1 ZINC000995593866    0.0700
38     H38     6.0144    1.4743   -0.3090 H        1 ZINC000995593866    0.0800
39     H39     8.1031    0.4876   -2.3824 H        1 ZINC000995593866    0.0800
40     H40     8.3981    1.0389   -0.6765 H        1 ZINC000995593866    0.0700
41     H41     7.1962   -0.8858    0.2494 H        1 ZINC000995593866    0.0800
42     H42     7.6528   -1.6755   -1.3219 H        1 ZINC000995593866    0.0700
43     H43     1.6942   -2.3901    0.6044 H        1 ZINC000995593866    0.0900
44     H44     2.8208   -1.1926    1.3140 H        1 ZINC000995593866    0.0800
45     H45    -1.0910   -1.1098    1.9807 H        1 ZINC000995593866    0.3600
46     H46     1.3369   -1.9186    3.4432 H        1 ZINC000995593866    0.1200
47     H47     0.3169   -0.5248    3.8733 H        1 ZINC000995593866    0.0800
48     H48    -1.3333   -5.6980    6.5032 H        1 ZINC000995593866    0.1500
@<TRIPOS>BOND
1     1     2     1
2     1     26    1
3     1     27    1
4     1     28    1
5     2     14    1
6     2     3     1
7     2     4     1
8     3     29    1
9     3     30    1
10    3     31    1
11    4     5     1
12    4     32    1
13    4     33    1
14    5     6     am
15    5     13    1
16    6     7     2
17    6     8     1
18    8     9     1
19    8     34    1
20    8     35    1
21    9     12    1
22    9     10    1
23    9     36    1
24    10    11    1
25    10    37    1
26    10    38    1
27    11    12    1
28    11    39    1
29    11    40    1
30    12    41    1
31    12    42    1
32    13    14    1
33    13    43    1
34    13    44    1
35    14    15    1
36    14    16    1
37    16    17    1
38    16    45    1
39    17    18    1
40    17    46    1
41    17    47    1
42    18    25    1
43    18    19    2
44    19    20    1
45    20    21    1
46    20    24    2
47    21    22    1
48    21    23    1
49    21    48    1
50    24    25    1
@<TRIPOS>SUBSTRUCTURE
1   ZINC000995593866 1     RESIDUE    1   A     ZIN   1
@<TRIPOS>MOLECULE
ZINC001013196242
48	51	1	0	0
SMALL
USER_CHARGES
@<TRIPOS>ATOM
1      C1     -0.2071    1.2192   -0.0369 C.3      1 ZINC001013196242   -0.1600
2      C2      0.0976   -0.2771   -0.1330 C.3      1 ZINC001013196242    0.1400
3      H3      0.7291   -0.4717   -0.9998 H        1 ZINC001013196242    0.0800
4      C4     -1.2185   -1.0741   -0.2529 C.3      1 ZINC001013196242   -0.1400
5      C5     -0.9417   -2.3337    0.6098 C.3      1 ZINC001013196242    0.1300
6      H6     -0.3889   -3.0822    0.0422 H        1 ZINC001013196242    0.1100
7      N7     -2.1887   -2.8936    1.1368 N.am     1 ZINC001013196242   -0.7200
8      C8     -2.2565   -4.1998    1.4619 C.2      1 ZINC001013196242    0.5400
9      O9     -1.2851   -4.9116    1.3183 O.2      1 ZINC001013196242   -0.5200
10     C10    -3.5392   -4.7757    2.0040 C.3      1 ZINC001013196242   -0.1400
11     C11    -4.5587   -5.1444    0.9118 C.3      1 ZINC001013196242   -0.0800
12     C12    -3.9000   -6.5278    0.8813 C.3      1 ZINC001013196242   -0.1600
13     C13    -4.4235   -7.8166    0.2574 C.3      1 ZINC001013196242   -0.1700
14     C14    -3.1249   -7.1870   -0.2541 C.3      1 ZINC001013196242   -0.1400
15     C15    -3.4522   -6.2781    2.3255 C.3      1 ZINC001013196242   -0.0800
16     C16    -0.0712   -1.7457    1.7484 C.3      1 ZINC001013196242    0.0800
17     N17     0.7754   -0.7289    1.0909 N.am     1 ZINC001013196242   -0.6000
18     C18     1.9675   -0.2895    1.5405 C.2      1 ZINC001013196242    0.6100
19     O19     2.6243    0.4833    0.8678 O.2      1 ZINC001013196242   -0.5400
20     C20     2.4733   -0.7426    2.8405 C.2      1 ZINC001013196242   -0.0400
21     C21     1.7880   -1.5091    3.7593 C.2      1 ZINC001013196242   -0.1400
22     C22     2.6423   -1.7060    4.8494 C.2      1 ZINC001013196242   -0.1200
23     Cl23    2.2736   -2.6056    6.2876 Cl       1 ZINC001013196242   -0.0400
24     C24     3.8090   -1.0701    4.5831 C.2      1 ZINC001013196242    0.0400
25     N25     3.7205   -0.4850    3.3627 N.pl3    1 ZINC001013196242   -0.4000
26     C26     4.7741    0.2979    2.7121 C.3      1 ZINC001013196242    0.0700
27     H27     0.7262    1.7750    0.0531 H        1 ZINC001013196242    0.0700
28     H28    -0.7364    1.5406   -0.9340 H        1 ZINC001013196242    0.0700
29     H29    -0.8283    1.4080    0.8387 H        1 ZINC001013196242    0.0600
30     H30    -2.0532   -0.5036    0.1543 H        1 ZINC001013196242    0.0900
31     H31    -1.4085   -1.3510   -1.2898 H        1 ZINC001013196242    0.0900
32     H32    -2.9656   -2.3242    1.2517 H        1 ZINC001013196242    0.4000
33     H33    -3.9614   -4.1802    2.8135 H        1 ZINC001013196242    0.1000
34     H34    -5.5903   -5.1590    1.2637 H        1 ZINC001013196242    0.1000
35     H35    -4.4330   -4.5798   -0.0120 H        1 ZINC001013196242    0.0700
36     H36    -4.3423   -8.7303    0.8462 H        1 ZINC001013196242    0.1000
37     H37    -5.3035   -7.7454   -0.3818 H        1 ZINC001013196242    0.0900
38     H38    -3.1508   -6.7016   -1.2297 H        1 ZINC001013196242    0.0900
39     H39    -2.1895   -7.6865   -0.0016 H        1 ZINC001013196242    0.1000
40     H40    -2.4395   -6.6225    2.5350 H        1 ZINC001013196242    0.0800
41     H41    -4.1758   -6.6083    3.0709 H        1 ZINC001013196242    0.0900
42     H42    -0.7017   -1.2829    2.5075 H        1 ZINC001013196242    0.0800
43     H43     0.5491   -2.5244    2.1923 H        1 ZINC001013196242    0.1000
44     H44     0.7811   -1.8860    3.6569 H        1 ZINC001013196242    0.1600
45     H45     4.6699   -1.0378    5.2344 H        1 ZINC001013196242    0.1800
46     H46     5.3394   -0.3443    2.0367 H        1 ZINC001013196242    0.0800
47     H47     4.3239    1.1134    2.1462 H        1 ZINC001013196242    0.1000
48     H48     5.4430    0.7069    3.4693 H        1 ZINC001013196242    0.0900
@<TRIPOS>BOND
1     1     2     1
2     1     27    1
3     1     28    1
4     1     29    1
5     2     3     1
6     2     17    1
7     2     4     1
8     4     5     1
9     4     30    1
10    4     31    1
11    5     6     1
12    5     7     1
13    5     16    1
14    7     8     am
15    7     32    1
16    8     9     2
17    8     10    1
18    10    15    1
19    10    11    1
20    10    33    1
21    11    12    1
22    11    34    1
23    11    35    1
24    12    14    1
25    12    13    1
26    12    15    1
27    13    14    1
28    13    36    1
29    13    37    1
30    14    38    1
31    14    39    1
32    15    40    1
33    15    41    1
34    16    17    1
35    16    42    1
36    16    43    1
37    17    18    am
38    18    19    2
39    18    20    1
40    20    25    1
41    20    21    2
42    21    22    1
43    21    44    1
44    22    23    1
45    22    24    2
46    24    25    1
47    24    45    1
48    25    26    1
49    26    46    1
50    26    47    1
51    26    48    1
@<TRIPOS>SUBSTRUCTURE
1   ZINC001013196242 1     RESIDUE    1   A     ZIN   1
@<TRIPOS>MOLECULE
ZINC000055987960
50	52	1	0	0
SMALL
USER_CHARGES
@<TRIPOS>ATOM
1      C1     -0.1934    2.6080   -1.7008 C.3      1 ZINC000055987960   -0.1800
2      C2     -0.3370    1.4150   -0.7537 C.3      1 ZINC000055987960    0.0700
3      H3     -1.3825    1.1101   -0.7083 H        1 ZINC000055987960    0.1200
4      C4      0.5147    0.2484   -1.2670 C.3      1 ZINC000055987960    0.0800
5      N5      1.9332    0.6197   -1.1432 N.am     1 ZINC000055987960   -0.6100
6      C6      2.7774    0.4919   -2.1860 C.2      1 ZINC000055987960    0.5700
7      O7      2.3893   -0.0069   -3.2247 O.2      1 ZINC000055987960   -0.5300
8      C8      4.1730    0.9573   -2.0671 C.ar     1 ZINC000055987960   -0.1500
9      C9      4.9161    0.6571   -0.9223 C.ar     1 ZINC000055987960   -0.0700
10     C10     6.2178    1.0924   -0.8147 C.ar     1 ZINC000055987960   -0.1500
11     C11     6.7935    1.8304   -1.8442 C.ar     1 ZINC000055987960    0.1700
12     N12     8.1122    2.2693   -1.7322 N.am     1 ZINC000055987960   -0.6700
13     C13     8.4707    3.4636   -2.2437 C.2      1 ZINC000055987960    0.5200
14     O14     7.6683    4.1186   -2.8746 O.2      1 ZINC000055987960   -0.5000
15     C15     9.8686    3.9852   -2.0318 C.3      1 ZINC000055987960   -0.1100
16     C16    10.0100    5.3289   -2.6992 C.ar     1 ZINC000055987960   -0.1000
17     C17    10.4237    5.4071   -4.0177 C.ar     1 ZINC000055987960    0.1300
18     F18    10.7011    4.2788   -4.7071 F        1 ZINC000055987960   -0.1300
19     C19    10.5528    6.6426   -4.6300 C.ar     1 ZINC000055987960   -0.1500
20     C20    10.2686    7.7963   -3.9247 C.ar     1 ZINC000055987960   -0.0700
21     C21     9.8553    7.7183   -2.6077 C.ar     1 ZINC000055987960   -0.1200
22     C22     9.7208    6.4847   -1.9961 C.ar     1 ZINC000055987960    0.0000
23     Cl23    9.2012    6.3878   -0.3425 Cl       1 ZINC000055987960   -0.0500
24     C24     6.0564    2.1310   -2.9853 C.ar     1 ZINC000055987960   -0.1200
25     C25     4.7560    1.6943   -3.1015 C.ar     1 ZINC000055987960   -0.0500
26     C26     2.4027    1.1351    0.1527 C.3      1 ZINC000055987960    0.0600
27     C27     1.4590    2.2586    0.5968 C.3      1 ZINC000055987960    0.0700
28     H28     1.5678    3.1115   -0.0731 H        1 ZINC000055987960    0.0700
29     C29     1.8061    2.6829    2.0252 C.3      1 ZINC000055987960   -0.1500
30     O30     0.1094    1.7860    0.5527 O.3      1 ZINC000055987960   -0.3700
31     H31     0.8523    2.9124   -1.7458 H        1 ZINC000055987960    0.0600
32     H32    -0.5323    2.3239   -2.6971 H        1 ZINC000055987960    0.0700
33     H33    -0.7978    3.4377   -1.3343 H        1 ZINC000055987960    0.0700
34     H34     0.3149   -0.6421   -0.6709 H        1 ZINC000055987960    0.0800
35     H35     0.2765    0.0520   -2.3123 H        1 ZINC000055987960    0.1000
36     H36     4.4698    0.0846   -0.1227 H        1 ZINC000055987960    0.1400
37     H37     6.7926    0.8611    0.0699 H        1 ZINC000055987960    0.1300
38     H38     8.7716    1.7151   -1.2862 H        1 ZINC000055987960    0.4200
39     H39    10.0599    4.0881   -0.9636 H        1 ZINC000055987960    0.1200
40     H40    10.5861    3.2876   -2.4638 H        1 ZINC000055987960    0.1200
41     H41    10.8759    6.7043   -5.6587 H        1 ZINC000055987960    0.1500
42     H42    10.3697    8.7596   -4.4024 H        1 ZINC000055987960    0.1500
43     H43     9.6338    8.6206   -2.0572 H        1 ZINC000055987960    0.1400
44     H44     6.5061    2.7044   -3.7824 H        1 ZINC000055987960    0.1500
45     H45     4.1843    1.9279   -3.9875 H        1 ZINC000055987960    0.1300
46     H46     2.3930    0.3339    0.8917 H        1 ZINC000055987960    0.0800
47     H47     3.4147    1.5259    0.0475 H        1 ZINC000055987960    0.1100
48     H48     2.8356    3.0394    2.0582 H        1 ZINC000055987960    0.0700
49     H49     1.1347    3.4817    2.3402 H        1 ZINC000055987960    0.0700
50     H50     1.6953    1.8299    2.6947 H        1 ZINC000055987960    0.0700
@<TRIPOS>BOND
1     1     2     1
2     1     31    1
3     1     32    1
4     1     33    1
5     2     3     1
6     2     30    1
7     2     4     1
8     4     5     1
9     4     34    1
10    4     35    1
11    5     6     am
12    5     26    1
13    6     7     2
14    6     8     1
15    8     25    ar
16    8     9     ar
17    9     10    ar
18    9     36    1
19    10    11    ar
20    10    37    1
21    11    12    1
22    11    24    ar
23    12    13    am
24    12    38    1
25    13    14    2
26    13    15    1
27    15    16    1
28    15    39    1
29    15    40    1
30    16    22    ar
31    16    17    ar
32    17    18    1
33    17    19    ar
34    19    20    ar
35    19    41    1
36    20    21    ar
37    20    42    1
38    21    22    ar
39    21    43    1
40    22    23    1
41    24    25    ar
42    24    44    1
43    25    45    1
44    26    27    1
45    26    46    1
46    26    47    1
47    27    28    1
48    27    29    1
49    27    30    1
50    29    48    1
51    29    49    1
52    29    50    1
@<TRIPOS>SUBSTRUCTURE
1   ZINC000055987960 1     RESIDUE    1   A     ZIN   1
@<TRIPOS>MOLECULE
ZINC000507831344
61	64	1	0	0
SMALL
USER_CHARGES
@<TRIPOS>ATOM
1      C1     -0.1731    1.3824   -0.0183 C.3      1 ZINC000507831344   -0.1000
2      C2     -0.1111   -0.1218   -0.0873 C.ar     1 ZINC000507831344   -0.0800
3      C3     -0.1529   -0.7687   -1.3085 C.ar     1 ZINC000507831344   -0.0800
4      C4     -0.0923   -2.1614   -1.3246 C.ar     1 ZINC000507831344    0.0900
5      N5     -0.1310   -2.8592   -2.5398 N.am     1 ZINC000507831344   -0.6700
6      C6      0.4479   -2.3336   -3.6375 C.2      1 ZINC000507831344    0.5100
7      O7      1.0859   -1.3054   -3.5533 O.2      1 ZINC000507831344   -0.5100
8      C8      0.3026   -3.0232   -4.9696 C.3      1 ZINC000507831344   -0.1400
9      C9      1.0493   -2.2258   -6.0408 C.3      1 ZINC000507831344   -0.0500
10     C10     0.9039   -2.9154   -7.3729 C.2      1 ZINC000507831344   -0.2200
11     C11    -0.0707   -2.5338   -8.2400 C.2      1 ZINC000507831344    0.2100
12     C12    -1.0170   -1.4175   -7.8803 C.3      1 ZINC000507831344   -0.1400
13     N13    -0.1813   -3.1711   -9.4360 N.pl3    1 ZINC000507831344   -0.3000
14     N14    -1.0636   -3.0057  -10.5104 N.am     1 ZINC000507831344   -0.5100
15     C15    -0.7445   -3.8996  -11.4659 C.2      1 ZINC000507831344    0.5500
16     O16    -1.3110   -4.0311  -12.5388 O.2      1 ZINC000507831344   -0.5400
17     C17     0.3433   -4.6490  -11.0205 C.2      1 ZINC000507831344   -0.3500
18     C18     0.6867   -4.1858   -9.7523 C.2      1 ZINC000507831344    0.3500
19     N19     1.6433   -4.5542   -8.8922 N.2      1 ZINC000507831344   -0.4800
20     C20     1.7748   -3.9505   -7.7307 C.2      1 ZINC000507831344    0.2500
21     C21     2.8600   -4.3822   -6.7783 C.3      1 ZINC000507831344   -0.1200
22     C22     0.0073   -2.8478   -0.1243 C.ar     1 ZINC000507831344    0.0800
23     N23     0.0447   -2.1980    1.0236 N.ar     1 ZINC000507831344   -0.4900
24     C24    -0.0053   -0.8765    1.0765 C.ar     1 ZINC000507831344    0.2800
25     N25     0.0378   -0.2349    2.3113 N.3      1 ZINC000507831344   -0.4800
26     C26    -1.1943   -0.4763    3.0730 C.3      1 ZINC000507831344    0.0600
27     C27    -1.1742    0.3580    4.3558 C.3      1 ZINC000507831344   -0.1200
28     C28     0.0489   -0.0294    5.1916 C.3      1 ZINC000507831344   -0.1200
29     C29     1.3155    0.1856    4.3585 C.3      1 ZINC000507831344   -0.1100
30     C30     1.2232   -0.6436    3.0756 C.3      1 ZINC000507831344    0.0900
31     H31     1.1441   -1.7003    3.3311 H        1 ZINC000507831344    0.0600
32     C32     2.4780   -0.4161    2.2302 C.3      1 ZINC000507831344   -0.1400
33     H33     0.8385    1.7861    0.0243 H        1 ZINC000507831344    0.0700
34     H34    -0.6805    1.7661   -0.9034 H        1 ZINC000507831344    0.0600
35     H35    -0.7221    1.6828    0.8742 H        1 ZINC000507831344    0.0800
36     H36    -0.2311   -0.2083   -2.2283 H        1 ZINC000507831344    0.1500
37     H37    -0.5746   -3.7204   -2.5907 H        1 ZINC000507831344    0.4100
38     H38     0.7214   -4.0275   -4.9063 H        1 ZINC000507831344    0.1000
39     H39    -0.7532   -3.0857   -5.2331 H        1 ZINC000507831344    0.1000
40     H40     0.6305   -1.2214   -6.1041 H        1 ZINC000507831344    0.0900
41     H41     2.1051   -2.1633   -5.7773 H        1 ZINC000507831344    0.1000
42     H42    -0.6023   -0.4672   -8.2164 H        1 ZINC000507831344    0.1000
43     H43    -1.9787   -1.5861   -8.3651 H        1 ZINC000507831344    0.0800
44     H44    -1.1546   -1.3919   -6.7993 H        1 ZINC000507831344    0.1100
45     H45    -1.7834   -2.3573  -10.5583 H        1 ZINC000507831344    0.4400
46     H46     0.8319   -5.4459  -11.5614 H        1 ZINC000507831344    0.1700
47     H47     3.4287   -5.1996   -7.2219 H        1 ZINC000507831344    0.0900
48     H48     3.5255   -3.5419   -6.5807 H        1 ZINC000507831344    0.1000
49     H49     2.4107   -4.7175   -5.8435 H        1 ZINC000507831344    0.0900
50     H50     0.0544   -3.9267   -0.1287 H        1 ZINC000507831344    0.1600
51     H51    -2.0561   -0.1928    2.4689 H        1 ZINC000507831344    0.0700
52     H52    -1.2621   -1.5337    3.3284 H        1 ZINC000507831344    0.0500
53     H53    -1.1203    1.4164    4.1008 H        1 ZINC000507831344    0.0700
54     H54    -2.0817    0.1668    4.9285 H        1 ZINC000507831344    0.0700
55     H55     0.0910    0.5927    6.0856 H        1 ZINC000507831344    0.0700
56     H56    -0.0240   -1.0781    5.4796 H        1 ZINC000507831344    0.0600
57     H57     1.4086    1.2413    4.1036 H        1 ZINC000507831344    0.0700
58     H58     2.1868   -0.1287    4.9331 H        1 ZINC000507831344    0.0700
59     H59     3.3487   -0.8002    2.7616 H        1 ZINC000507831344    0.0600
60     H60     2.3742   -0.9371    1.2784 H        1 ZINC000507831344    0.0500
61     H61     2.6049    0.6511    2.0482 H        1 ZINC000507831344    0.0600
@<TRIPOS>BOND
1     1     2     1
2     1     33    1
3     1     34    1
4     1     35    1
5     2     24    ar
6     2     3     ar
7     3     4     ar
8     3     36    1
9     4     5     1
10    4     22    ar
11    5     6     am
12    5     37    1
13    6     7     2
14    6     8     1
15    8     9     1
16    8     38    1
17    8     39    1
18    9     10    1
19    9     40    1
20    9     41    1
21    10    20    1
22    10    11    2
23    11    12    1
24    11    13    1
25    12    42    1
26    12    43    1
27    12    44    1
28    13    18    1
29    13    14    1
30    14    15    am
31    14    45    1
32    15    16    2
33    15    17    1
34    17    18    2
35    17    46    1
36    18    19    1
37    19    20    2
38    20    21    1
39    21    47    1
40    21    48    1
41    21    49    1
42    22    23    ar
43    22    50    1
44    23    24    ar
45    24    25    1
46    25    30    1
47    25    26    1
48    26    27    1
49    26    51    1
50    26    52    1
51    27    28    1
52    27    53    1
53    27    54    1
54    28    29    1
55    28    55    1
56    28    56    1
57    29    30    1
58    29    57    1
59    29    58    1
60    30    31    1
61    30    32    1
62    32    59    1
63    32    60    1
64    32    61    1
@<TRIPOS>SUBSTRUCTURE
1   ZINC000507831344 1     RESIDUE    1   A     ZIN   1
@<TRIPOS>MOLECULE
ZINC001625935330
42	44	1	0	0
SMALL
USER_CHARGES
@<TRIPOS>ATOM
1      C1     -0.0187    1.5258    0.0104 C.3      1 ZINC001625935330   -0.1600
2      C2      0.0021   -0.0041    0.0020 C.3      1 ZINC001625935330    0.1800
3      H3      0.5293   -0.3651    0.8851 H        1 ZINC001625935330    0.1000
4      N4     -1.3723   -0.5112    0.0124 N.am     1 ZINC001625935330   -0.7100
5      C5     -2.0286   -0.6552    1.1807 C.2      1 ZINC001625935330    0.5800
6      O6     -1.4804   -0.3645    2.2255 O.2      1 ZINC001625935330   -0.5300
7      C7     -3.4187   -1.1681    1.1913 C.ar     1 ZINC001625935330    0.0800
8      C8     -4.0914   -1.3086    2.4002 C.ar     1 ZINC001625935330   -0.1000
9      C9     -5.4023   -1.7933    2.3919 C.ar     1 ZINC001625935330    0.0000
10     C10    -6.1604   -1.9599    3.6564 C.ar     1 ZINC001625935330   -0.0600
11     C11    -5.5709   -1.6268    4.8743 C.ar     1 ZINC001625935330   -0.1000
12     C12    -6.2809   -1.7833    6.0474 C.ar     1 ZINC001625935330   -0.1200
13     C13    -7.5754   -2.2698    6.0157 C.ar     1 ZINC001625935330   -0.1100
14     C14    -8.1656   -2.6021    4.8095 C.ar     1 ZINC001625935330   -0.1200
15     C15    -7.4667   -2.4446    3.6299 C.ar     1 ZINC001625935330   -0.1000
16     C16    -5.9801   -2.1165    1.1618 C.ar     1 ZINC001625935330   -0.1400
17     C17    -5.2420   -1.9473    0.0038 C.ar     1 ZINC001625935330    0.1100
18     N18    -4.0116   -1.4838    0.0456 N.ar     1 ZINC001625935330   -0.4600
19     C19     0.7074   -0.4901   -1.2379 C.ar     1 ZINC001625935330   -0.0900
20     C20     0.0356   -0.5209   -2.4468 C.ar     1 ZINC001625935330   -0.0800
21     C21     0.6757   -0.9657   -3.5902 C.ar     1 ZINC001625935330   -0.1100
22     C22     1.9895   -1.3812   -3.5316 C.ar     1 ZINC001625935330   -0.0700
23     C23     2.6739   -1.3523   -2.3146 C.ar     1 ZINC001625935330   -0.0200
24     C24     4.0382   -1.7821   -2.2462 C.1      1 ZINC001625935330    0.2500
25     N25     5.1205   -2.1231   -2.1920 N.1      1 ZINC001625935330   -0.4100
26     C26     2.0235   -0.8978   -1.1658 C.ar     1 ZINC001625935330   -0.0600
27     H27     1.0039    1.9031    0.0027 H        1 ZINC001625935330    0.0700
28     H28    -0.5459    1.8868   -0.8726 H        1 ZINC001625935330    0.0600
29     H29    -0.5289    1.8773    0.9072 H        1 ZINC001625935330    0.0700
30     H30    -1.8100   -0.7432   -0.8215 H        1 ZINC001625935330    0.4100
31     H31    -3.6087   -1.0477    3.3304 H        1 ZINC001625935330    0.1500
32     H32    -4.5601   -1.2472    4.9002 H        1 ZINC001625935330    0.1300
33     H33    -5.8249   -1.5258    6.9919 H        1 ZINC001625935330    0.1300
34     H34    -8.1273   -2.3911    6.9361 H        1 ZINC001625935330    0.1300
35     H35    -9.1764   -2.9818    4.7906 H        1 ZINC001625935330    0.1300
36     H36    -7.9285   -2.7040    2.6887 H        1 ZINC001625935330    0.1300
37     H37    -6.9908   -2.4942    1.1153 H        1 ZINC001625935330    0.1400
38     H38    -5.6843   -2.1961   -0.9496 H        1 ZINC001625935330    0.1700
39     H39    -0.9933   -0.1967   -2.4983 H        1 ZINC001625935330    0.1300
40     H40     0.1451   -0.9879   -4.5306 H        1 ZINC001625935330    0.1400
41     H41     2.4878   -1.7285   -4.4246 H        1 ZINC001625935330    0.1400
42     H42     2.5470   -0.8729   -0.2215 H        1 ZINC001625935330    0.1400
@<TRIPOS>BOND
1     1     2     1
2     1     27    1
3     1     28    1
4     1     29    1
5     2     3     1
6     2     4     1
7     2     19    1
8     4     5     am
9     4     30    1
10    5     6     2
11    5     7     1
12    7     18    ar
13    7     8     ar
14    8     9     ar
15    8     31    1
16    9     10    1
17    9     16    ar
18    10    15    ar
19    10    11    ar
20    11    12    ar
21    11    32    1
22    12    13    ar
23    12    33    1
24    13    14    ar
25    13    34    1
26    14    15    ar
27    14    35    1
28    15    36    1
29    16    17    ar
30    16    37    1
31    17    18    ar
32    17    38    1
33    19    26    ar
34    19    20    ar
35    20    21    ar
36    20    39    1
37    21    22    ar
38    21    40    1
39    22    23    ar
40    22    41    1
41    23    24    1
42    23    26    ar
43    24    25    3
44    26    42    1
@<TRIPOS>SUBSTRUCTURE
1   ZINC001625935330 1     RESIDUE    1   A     ZIN   1
@<TRIPOS>MOLECULE
ZINC000330515179
41	42	1	0	0
SMALL
USER_CHARGES
@<TRIPOS>ATOM
1      C1     -0.0173    1.4248    0.0099 C.3      1 ZINC000330515179    0.0300
2      O2      0.0021   -0.0041    0.0020 O.3      1 ZINC000330515179   -0.3800
3      C3     -1.2953   -0.6030    0.0112 C.3      1 ZINC000330515179    0.0700
4      C4     -1.1538   -2.1264    0.0017 C.3      1 ZINC000330515179    0.0800
5      H5     -0.5415   -2.4299   -0.8475 H        1 ZINC000330515179    0.0800
6      C6     -2.5411   -2.7688   -0.1119 C.3      1 ZINC000330515179    0.0900
7      N7     -2.3959   -4.2219    0.0692 N.am     1 ZINC000330515179   -1.0000
8      S8     -3.0583   -5.2862   -1.0129 S.o2     1 ZINC000330515179    2.6900
9      O9     -3.2348   -6.5109   -0.3142 O.2      1 ZINC000330515179   -0.9400
10     O10    -4.1227   -4.5966   -1.6537 O.2      1 ZINC000330515179   -0.9500
11     C11    -1.8450   -5.5915   -2.2535 C.ar     1 ZINC000330515179   -0.6700
12     C12    -1.7908   -4.7906   -3.3790 C.ar     1 ZINC000330515179   -0.0100
13     C13    -0.8389   -5.0295   -4.3523 C.ar     1 ZINC000330515179   -0.1100
14     C14     0.0596   -6.0701   -4.2000 C.ar     1 ZINC000330515179   -0.0400
15     Br15    1.3626   -6.3970   -5.5309 Br       1 ZINC000330515179   -0.0300
16     C16     0.0051   -6.8712   -3.0737 C.ar     1 ZINC000330515179   -0.1100
17     C17    -0.9438   -6.6283   -2.0984 C.ar     1 ZINC000330515179   -0.0100
18     C18    -1.6452   -4.7013    1.2405 C.3      1 ZINC000330515179    0.1000
19     C19    -0.3016   -3.9648    1.2882 C.3      1 ZINC000330515179    0.1000
20     C20     0.4176   -4.2978    2.5969 C.3      1 ZINC000330515179   -0.1400
21     C21     0.5632   -4.4021    0.1042 C.3      1 ZINC000330515179   -0.1800
22     O22    -0.5332   -2.5559    1.2158 O.3      1 ZINC000330515179   -0.3500
23     H23     1.0053    1.8021    0.0021 H        1 ZINC000330515179    0.0900
24     H24    -0.5445    1.7859   -0.8732 H        1 ZINC000330515179    0.0400
25     H25    -0.5275    1.7763    0.9067 H        1 ZINC000330515179    0.0400
26     H26    -1.8320   -0.2936    0.9080 H        1 ZINC000330515179    0.0600
27     H27    -1.8490   -0.2840   -0.8718 H        1 ZINC000330515179    0.0700
28     H28    -3.1964   -2.3662    0.6604 H        1 ZINC000330515179    0.0900
29     H29    -2.9621   -2.5617   -1.0958 H        1 ZINC000330515179    0.1000
30     H30    -2.4927   -3.9784   -3.4980 H        1 ZINC000330515179    0.1500
31     H31    -0.7969   -4.4040   -5.2317 H        1 ZINC000330515179    0.1500
32     H32     0.7064   -7.6837   -2.9543 H        1 ZINC000330515179    0.1500
33     H33    -0.9865   -7.2537   -1.2190 H        1 ZINC000330515179    0.1500
34     H34    -2.2103   -4.4933    2.1490 H        1 ZINC000330515179    0.0900
35     H35    -1.4729   -5.7740    1.1522 H        1 ZINC000330515179    0.1000
36     H36     0.5906   -5.3725    2.6531 H        1 ZINC000330515179    0.0800
37     H37     1.3728   -3.7738    2.6301 H        1 ZINC000330515179    0.0700
38     H38    -0.1983   -3.9844    3.4399 H        1 ZINC000330515179    0.0700
39     H39     0.0511   -4.1629   -0.8278 H        1 ZINC000330515179    0.0600
40     H40     1.5183   -3.8780    0.1388 H        1 ZINC000330515179    0.0700
41     H41     0.7364   -5.4769    0.1582 H        1 ZINC000330515179    0.0700
@<TRIPOS>BOND
1     1     2     1
2     1     23    1
3     1     24    1
4     1     25    1
5     2     3     1
6     3     4     1
7     3     26    1
8     3     27    1
9     4     5     1
10    4     22    1
11    4     6     1
12    6     7     1
13    6     28    1
14    6     29    1
15    7     8     am
16    7     18    1
17    8     9     2
18    8     10    2
19    8     11    1
20    11    17    ar
21    11    12    ar
22    12    13    ar
23    12    30    1
24    13    14    ar
25    13    31    1
26    14    15    1
27    14    16    ar
28    16    17    ar
29    16    32    1
30    17    33    1
31    18    19    1
32    18    34    1
33    18    35    1
34    19    20    1
35    19    21    1
36    19    22    1
37    20    36    1
38    20    37    1
39    20    38    1
40    21    39    1
41    21    40    1
42    21    41    1
@<TRIPOS>SUBSTRUCTURE
1   ZINC000330515179 1     RESIDUE    1   A     ZIN   1
@<TRIPOS>MOLECULE
ZINC000481050680
47	49	1	0	0
SMALL
USER_CHARGES
@<TRIPOS>ATOM
1      N1      0.0175   -1.1399   -0.0042 N.1      1 ZINC000481050680   -0.3900
2      C2      0.0021   -0.0041    0.0020 C.1      1 ZINC000481050680    0.2500
3      C3     -0.0173    1.4278    0.0099 C.ar     1 ZINC000481050680    0.0200
4      C4     -1.2340    2.1122    0.0310 C.ar     1 ZINC000481050680   -0.0800
5      C5     -1.2469    3.4919    0.0390 C.ar     1 ZINC000481050680   -0.0800
6      C6     -0.0581    4.1984    0.0261 C.ar     1 ZINC000481050680   -0.1000
7      C7     -0.0806    5.7052    0.0350 C.3      1 ZINC000481050680   -0.5900
8      S8     -0.0654    6.3001    1.7486 S.o2     1 ZINC000481050680    2.6000
9      O9     -1.2887    5.9819    2.3978 O.2      1 ZINC000481050680   -0.9300
10     O10     1.1848    6.0191    2.3629 O.2      1 ZINC000481050680   -0.9400
11     N11    -0.0921    7.9504    1.6133 N.am     1 ZINC000481050680   -1.1100
12     C12    -1.2604    8.6192    1.0354 C.3      1 ZINC000481050680    0.2100
13     H13    -1.7831    7.9293    0.3729 H        1 ZINC000481050680    0.1000
14     C14    -0.8050    9.8441    0.2396 C.3      1 ZINC000481050680   -0.0800
15     C15     0.0226    9.3986   -0.9383 C.ar     1 ZINC000481050680   -0.0900
16     C16     1.3913    9.2563   -0.8070 C.ar     1 ZINC000481050680   -0.1200
17     C17     2.1506    8.8477   -1.8875 C.ar     1 ZINC000481050680   -0.1200
18     C18     1.5410    8.5810   -3.0992 C.ar     1 ZINC000481050680   -0.1200
19     C19     0.1722    8.7226   -3.2303 C.ar     1 ZINC000481050680   -0.1200
20     C20    -0.5876    9.1270   -2.1486 C.ar     1 ZINC000481050680   -0.1200
21     C21    -2.1878    9.0544    2.1405 C.ar     1 ZINC000481050680   -0.1300
22     C22    -1.6903    9.2890    3.4081 C.ar     1 ZINC000481050680   -0.0700
23     C23    -2.5411    9.6883    4.4223 C.ar     1 ZINC000481050680   -0.1300
24     C24    -3.8900    9.8528    4.1696 C.ar     1 ZINC000481050680   -0.0900
25     C25    -4.3900    9.6182    2.9026 C.ar     1 ZINC000481050680   -0.1500
26     C26    -3.5381    9.2248    1.8847 C.ar     1 ZINC000481050680    0.1100
27     F27    -4.0257    8.9953    0.6459 F        1 ZINC000481050680   -0.1400
28     C28     1.1540    3.5265    0.0056 C.ar     1 ZINC000481050680    0.1200
29     F29     2.3114    4.2233   -0.0064 F        1 ZINC000481050680   -0.1200
30     C30     1.1805    2.1452    0.0023 C.ar     1 ZINC000481050680   -0.1000
31     H31    -2.1637    1.5626    0.0408 H        1 ZINC000481050680    0.1500
32     H32    -2.1880    4.0216    0.0550 H        1 ZINC000481050680    0.1500
33     H33     0.7965    6.0848   -0.4892 H        1 ZINC000481050680    0.1500
34     H34    -0.9831    6.0580   -0.4641 H        1 ZINC000481050680    0.1500
35     H35     0.6659    8.4742    1.9168 H        1 ZINC000481050680    0.4200
36     H36    -1.6780   10.3914   -0.1159 H        1 ZINC000481050680    0.0900
37     H37    -0.2064   10.4915    0.8803 H        1 ZINC000481050680    0.0900
38     H38     1.8676    9.4646    0.1397 H        1 ZINC000481050680    0.1200
39     H39     3.2200    8.7371   -1.7851 H        1 ZINC000481050680    0.1200
40     H40     2.1343    8.2625   -3.9436 H        1 ZINC000481050680    0.1200
41     H41    -0.3040    8.5146   -4.1771 H        1 ZINC000481050680    0.1200
42     H42    -1.6570    9.2376   -2.2510 H        1 ZINC000481050680    0.1200
43     H43    -0.6366    9.1601    3.6068 H        1 ZINC000481050680    0.1300
44     H44    -2.1513    9.8715    5.4127 H        1 ZINC000481050680    0.1300
45     H45    -4.5537   10.1644    4.9627 H        1 ZINC000481050680    0.1300
46     H46    -5.4442    9.7462    2.7056 H        1 ZINC000481050680    0.1400
47     H47     2.1250    1.6217   -0.0134 H        1 ZINC000481050680    0.1600
@<TRIPOS>BOND
1     1     2     3
2     2     3     1
3     3     30    ar
4     3     4     ar
5     4     5     ar
6     4     31    1
7     5     6     ar
8     5     32    1
9     6     7     1
10    6     28    ar
11    7     8     1
12    7     33    1
13    7     34    1
14    8     9     2
15    8     10    2
16    8     11    am
17    11    12    1
18    11    35    1
19    12    13    1
20    12    14    1
21    12    21    1
22    14    15    1
23    14    36    1
24    14    37    1
25    15    20    ar
26    15    16    ar
27    16    17    ar
28    16    38    1
29    17    18    ar
30    17    39    1
31    18    19    ar
32    18    40    1
33    19    20    ar
34    19    41    1
35    20    42    1
36    21    26    ar
37    21    22    ar
38    22    23    ar
39    22    43    1
40    23    24    ar
41    23    44    1
42    24    25    ar
43    24    45    1
44    25    26    ar
45    25    46    1
46    26    27    1
47    28    29    1
48    28    30    ar
49    30    47    1
@<TRIPOS>SUBSTRUCTURE
1   ZINC000481050680 1     RESIDUE    1   A     ZIN   1
@<TRIPOS>MOLECULE
ZINC000632456679
40	41	1	0	0
SMALL
USER_CHARGES
@<TRIPOS>ATOM
1      C1     -0.0187    1.5258    0.0104 C.3      1 ZINC000632456679   -0.1600
2      C2      0.0021   -0.0041    0.0020 C.3      1 ZINC000632456679    0.1900
3      C3      0.7421   -0.5109    1.2415 C.3      1 ZINC000632456679   -0.2000
4      C4     -1.4333   -0.5336    0.0129 C.3      1 ZINC000632456679   -0.6300
5      S5     -1.4095   -2.3421    0.1520 S.o2     1 ZINC000632456679    2.4100
6      C6     -3.1790   -2.7417    0.1460 C.3      1 ZINC000632456679   -0.6600
7      O7     -0.8202   -2.8790   -1.0243 O.2      1 ZINC000632456679   -0.9300
8      O8     -0.8708   -2.6917    1.4196 O.2      1 ZINC000632456679   -0.9300
9      N9      0.6878   -0.4765   -1.2033 N.am     1 ZINC000632456679   -0.7200
10     C10     1.9715   -0.1323   -1.4270 C.2      1 ZINC000632456679    0.6200
11     O11     2.5604    0.5704   -0.6285 O.2      1 ZINC000632456679   -0.5000
12     C12     2.6620   -0.6080   -2.6408 C.2      1 ZINC000632456679   -0.0900
13     C13     3.9541   -0.3505   -3.0020 C.2      1 ZINC000632456679   -0.1300
14     C14     4.1042   -1.0380   -4.2378 C.2      1 ZINC000632456679    0.0400
15     C15     5.3242   -1.0973   -5.0807 C.ar     1 ZINC000632456679   -0.0500
16     C16     6.4840   -0.4381   -4.6794 C.ar     1 ZINC000632456679   -0.0600
17     C17     7.6163   -0.4960   -5.4666 C.ar     1 ZINC000632456679   -0.1100
18     C18     7.6028   -1.2064   -6.6533 C.ar     1 ZINC000632456679   -0.0700
19     C19     6.4550   -1.8640   -7.0593 C.ar     1 ZINC000632456679   -0.0800
20     Cl20    6.4465   -2.7533   -8.5502 Cl       1 ZINC000632456679   -0.0400
21     C21     5.3157   -1.8182   -6.2753 C.ar     1 ZINC000632456679    0.1400
22     F22     4.1948   -2.4603   -6.6710 F        1 ZINC000632456679   -0.1100
23     N23     2.9516   -1.6089   -4.4833 N.2      1 ZINC000632456679   -0.3200
24     O24     2.1458   -1.3873   -3.6100 O.3      1 ZINC000632456679    0.1400
25     H25     1.0039    1.9031    0.0027 H        1 ZINC000632456679    0.0900
26     H26    -0.5459    1.8868   -0.8726 H        1 ZINC000632456679    0.0600
27     H27    -0.5289    1.8773    0.9072 H        1 ZINC000632456679    0.0700
28     H28     0.2319   -0.1594    2.1383 H        1 ZINC000632456679    0.0800
29     H29     0.7568   -1.6008    1.2356 H        1 ZINC000632456679    0.0800
30     H30     1.7647   -0.1336    1.2338 H        1 ZINC000632456679    0.0900
31     H31    -1.9701   -0.1109    0.8621 H        1 ZINC000632456679    0.1600
32     H32    -1.9334   -0.2470   -0.9122 H        1 ZINC000632456679    0.1400
33     H33    -3.6277   -2.3901   -0.7831 H        1 ZINC000632456679    0.1300
34     H34    -3.3080   -3.8211    0.2261 H        1 ZINC000632456679    0.1300
35     H35    -3.6645   -2.2541    0.9913 H        1 ZINC000632456679    0.1300
36     H36     0.2179   -1.0371   -1.8404 H        1 ZINC000632456679    0.4200
37     H37     4.6893    0.2380   -2.4731 H        1 ZINC000632456679    0.1900
38     H38     6.4971    0.1178   -3.7536 H        1 ZINC000632456679    0.1500
39     H39     8.5153    0.0151   -5.1551 H        1 ZINC000632456679    0.1500
40     H40     8.4915   -1.2476   -7.2656 H        1 ZINC000632456679    0.1500
@<TRIPOS>BOND
1     1     2     1
2     1     25    1
3     1     26    1
4     1     27    1
5     2     3     1
6     2     4     1
7     2     9     1
8     3     28    1
9     3     29    1
10    3     30    1
11    4     5     1
12    4     31    1
13    4     32    1
14    5     6     1
15    5     7     2
16    5     8     2
17    6     33    1
18    6     34    1
19    6     35    1
20    9     10    am
21    9     36    1
22    10    11    2
23    10    12    1
24    12    24    1
25    12    13    2
26    13    14    1
27    13    37    1
28    14    15    1
29    14    23    2
30    15    21    ar
31    15    16    ar
32    16    17    ar
33    16    38    1
34    17    18    ar
35    17    39    1
36    18    19    ar
37    18    40    1
38    19    20    1
39    19    21    ar
40    21    22    1
41    23    24    1
@<TRIPOS>SUBSTRUCTURE
1   ZINC000632456679 1     RESIDUE    1   A     ZIN   1
@<TRIPOS>MOLECULE
ZINC001082278299
55	57	1	0	0
SMALL
USER_CHARGES
@<TRIPOS>ATOM
1      C1      3.9260   -5.1787   -2.0644 C.3      1 ZINC001082278299   -0.1300
2      C2      2.7534   -4.4850   -1.4204 C.2      1 ZINC001082278299    0.0000
3      C3      2.3618   -4.8362   -0.1989 C.2      1 ZINC001082278299   -0.2300
4      C4      1.1221   -4.2799    0.3645 C.2      1 ZINC001082278299    0.5400
5      O5      0.4050   -3.5762   -0.3207 O.2      1 ZINC001082278299   -0.5300
6      N6      0.7809   -4.5501    1.6401 N.am     1 ZINC001082278299   -0.7400
7      C7     -0.4538   -3.9960    2.2011 C.3      1 ZINC001082278299    0.1300
8      C8     -0.6700   -4.5550    3.6088 C.3      1 ZINC001082278299    0.1400
9      H9      0.1764   -4.2885    4.2418 H        1 ZINC001082278299    0.0800
10     C10    -0.8009   -6.0798    3.5414 C.3      1 ZINC001082278299   -0.1300
11     C11    -1.1550   -6.6193    4.9291 C.3      1 ZINC001082278299   -0.1200
12     C12    -2.4983   -6.0386    5.3765 C.3      1 ZINC001082278299   -0.1400
13     C13    -2.3867   -4.5133    5.4648 C.3      1 ZINC001082278299    0.1100
14     N14    -1.9047   -3.9962    4.1764 N.am     1 ZINC001082278299   -0.6100
15     C15    -2.5850   -3.0317    3.5257 C.2      1 ZINC001082278299    0.5100
16     O16    -2.2286   -2.6776    2.4219 O.2      1 ZINC001082278299   -0.5100
17     C17    -3.7885   -2.3931    4.1698 C.3      1 ZINC001082278299   -0.1100
18     C18    -4.3626   -1.3537    3.2419 C.2      1 ZINC001082278299   -0.0900
19     C19    -5.3442   -1.6890    2.4585 C.2      1 ZINC001082278299   -0.1800
20     C20    -5.9796   -0.7306    1.4917 C.3      1 ZINC001082278299    0.0900
21     O21    -5.6154    0.6119    1.8189 O.3      1 ZINC001082278299   -0.3800
22     C22    -4.2033    0.7830    1.9928 C.3      1 ZINC001082278299    0.0600
23     C23    -3.7821    0.0334    3.2619 C.3      1 ZINC001082278299   -0.1100
24     C24     2.0245   -3.3932   -2.1605 C.3      1 ZINC001082278299   -0.1200
25     C25     2.5071   -3.0526   -3.5719 C.3      1 ZINC001082278299   -0.1900
26     C26     1.1868   -3.8002   -3.3744 C.3      1 ZINC001082278299   -0.1500
27     H27     3.5730   -6.0447   -2.6244 H        1 ZINC001082278299    0.0800
28     H28     4.4293   -4.4887   -2.7416 H        1 ZINC001082278299    0.0800
29     H29     4.6238   -5.5046   -1.2930 H        1 ZINC001082278299    0.0700
30     H30     2.9541   -5.5299    0.3794 H        1 ZINC001082278299    0.1300
31     H31     1.3529   -5.1113    2.1866 H        1 ZINC001082278299    0.3900
32     H32    -0.3755   -2.9099    2.2496 H        1 ZINC001082278299    0.0900
33     H33    -1.2966   -4.2716    1.5673 H        1 ZINC001082278299    0.0800
34     H34    -1.5876   -6.3466    2.8357 H        1 ZINC001082278299    0.0700
35     H35     0.1445   -6.5120    3.2134 H        1 ZINC001082278299    0.0800
36     H36    -1.2245   -7.7064    4.8892 H        1 ZINC001082278299    0.0700
37     H37    -0.3801   -6.3310    5.6394 H        1 ZINC001082278299    0.0700
38     H38    -3.2691   -6.3058    4.6536 H        1 ZINC001082278299    0.0700
39     H39    -2.7611   -6.4414    6.3547 H        1 ZINC001082278299    0.0800
40     H40    -3.3653   -4.0875    5.6865 H        1 ZINC001082278299    0.0900
41     H41    -1.6819   -4.2434    6.2512 H        1 ZINC001082278299    0.0700
42     H42    -4.5406   -3.1560    4.3708 H        1 ZINC001082278299    0.1000
43     H43    -3.4915   -1.9202    5.1059 H        1 ZINC001082278299    0.1000
44     H44    -5.7191   -2.7008    2.5044 H        1 ZINC001082278299    0.1100
45     H45    -5.6424   -0.9604    0.4809 H        1 ZINC001082278299    0.0600
46     H46    -7.0636   -0.8332    1.5409 H        1 ZINC001082278299    0.1000
47     H47    -3.6753    0.3773    1.1298 H        1 ZINC001082278299    0.0600
48     H48    -3.9724    1.8428    2.1001 H        1 ZINC001082278299    0.1000
49     H49    -4.1429    0.5720    4.1382 H        1 ZINC001082278299    0.0800
50     H50    -2.6948   -0.0337    3.2998 H        1 ZINC001082278299    0.0800
51     H51     1.6528   -2.5746   -1.5441 H        1 ZINC001082278299    0.1300
52     H52     2.4531   -2.0098   -3.8843 H        1 ZINC001082278299    0.1000
53     H53     3.3518   -3.6183   -3.9651 H        1 ZINC001082278299    0.1000
54     H54     1.1630   -4.8577   -3.6377 H        1 ZINC001082278299    0.0900
55     H55     0.2643   -3.2492   -3.5569 H        1 ZINC001082278299    0.1000
@<TRIPOS>BOND
1     1     2     1
2     1     27    1
3     1     28    1
4     1     29    1
5     2     3     2
6     2     24    1
7     3     4     1
8     3     30    1
9     4     5     2
10    4     6     am
11    6     7     1
12    6     31    1
13    7     8     1
14    7     32    1
15    7     33    1
16    8     9     1
17    8     14    1
18    8     10    1
19    10    11    1
20    10    34    1
21    10    35    1
22    11    12    1
23    11    36    1
24    11    37    1
25    12    13    1
26    12    38    1
27    12    39    1
28    13    14    1
29    13    40    1
30    13    41    1
31    14    15    am
32    15    16    2
33    15    17    1
34    17    18    1
35    17    42    1
36    17    43    1
37    18    23    1
38    18    19    2
39    19    20    1
40    19    44    1
41    20    21    1
42    20    45    1
43    20    46    1
44    21    22    1
45    22    23    1
46    22    47    1
47    22    48    1
48    23    49    1
49    23    50    1
50    24    26    1
51    24    25    1
52    24    51    1
53    25    26    1
54    25    52    1
55    25    53    1
56    26    54    1
57    26    55    1
@<TRIPOS>SUBSTRUCTURE
1   ZINC001082278299 1     RESIDUE    1   A     ZIN   1
@<TRIPOS>MOLECULE
ZINC000438893617
61	66	1	0	0
SMALL
USER_CHARGES
@<TRIPOS>ATOM
1      C1     -0.2377    1.4474   -0.1043 C.3      1 ZINC000438893617   -0.1000
2      C2     -0.1907   -0.0588   -0.1062 C.2      1 ZINC000438893617   -0.0900
3      C3     -0.1498   -0.7739   -1.2315 C.2      1 ZINC000438893617   -0.1600
4      C4     -0.1441   -0.2009   -2.6253 C.3      1 ZINC000438893617   -0.0400
5      H5     -0.5976    0.7847   -2.7302 H        1 ZINC000438893617    0.1400
6      C6     -0.3009   -1.1785   -3.7917 C.3      1 ZINC000438893617   -0.1400
7      C7      1.0558   -0.5250   -3.5174 C.3      1 ZINC000438893617   -0.1800
8      H8      1.8410   -1.1529   -3.0965 H        1 ZINC000438893617    0.1300
9      C9      1.5203    0.5423   -4.4747 C.2      1 ZINC000438893617    0.5500
10     O10     0.9470    1.6102   -4.5169 O.2      1 ZINC000438893617   -0.5300
11     N11     2.5729    0.3100   -5.2838 N.am     1 ZINC000438893617   -0.6100
12     C12     3.2733   -0.9814   -5.2478 C.3      1 ZINC000438893617    0.0900
13     C13     3.2873   -1.5710   -6.6636 C.3      1 ZINC000438893617    0.1000
14     N14     3.7547   -0.5375   -7.5981 N.am     1 ZINC000438893617   -0.6100
15     C15     4.8067   -0.7701   -8.4079 C.2      1 ZINC000438893617    0.5300
16     O16     5.4363   -1.8014   -8.3030 O.2      1 ZINC000438893617   -0.5300
17     C17     5.2006    0.2513   -9.4436 C.3      1 ZINC000438893617   -0.0700
18     C18     5.7111    1.5139   -8.7464 C.3      1 ZINC000438893617   -0.1100
19     C19     6.1110    2.5508   -9.7979 C.3      1 ZINC000438893617   -0.0800
20     C20     4.8950    2.8996  -10.6585 C.3      1 ZINC000438893617   -0.1100
21     C21     4.3846    1.6370  -11.3557 C.3      1 ZINC000438893617   -0.0800
22     C22     5.4900    1.0625  -12.2439 C.3      1 ZINC000438893617   -0.1100
23     C23     6.7060    0.7137  -11.3833 C.3      1 ZINC000438893617   -0.0900
24     C24     7.2165    1.9764  -10.6861 C.3      1 ZINC000438893617   -0.1100
25     C25     6.3061   -0.3232  -10.3317 C.3      1 ZINC000438893617   -0.0900
26     C26     3.9846    0.6001  -10.3042 C.3      1 ZINC000438893617   -0.1200
27     C27     3.0543    0.7540   -7.6341 C.3      1 ZINC000438893617    0.0700
28     C28     3.0368    1.3415   -6.2222 C.3      1 ZINC000438893617    0.1000
29     S29    -0.1030   -2.4879   -0.8397 S.3      1 ZINC000438893617    0.1000
30     C30    -0.1427   -2.1263    0.8811 C.2      1 ZINC000438893617   -0.2100
31     C31    -0.1809   -0.8050    1.0597 C.2      1 ZINC000438893617   -0.1300
32     H32     0.7781    1.8426   -0.0915 H        1 ZINC000438893617    0.0700
33     H33    -0.7519    1.7961   -0.9999 H        1 ZINC000438893617    0.0700
34     H34    -0.7731    1.7931    0.7800 H        1 ZINC000438893617    0.0700
35     H35    -0.4082   -2.2361   -3.5510 H        1 ZINC000438893617    0.1100
36     H36    -0.8573   -0.8359   -4.6642 H        1 ZINC000438893617    0.1100
37     H37     4.2967   -0.8331   -4.9032 H        1 ZINC000438893617    0.0800
38     H38     2.7526   -1.6614   -4.5736 H        1 ZINC000438893617    0.1000
39     H39     3.9619   -2.4265   -6.6970 H        1 ZINC000438893617    0.1100
40     H40     2.2805   -1.8849   -6.9391 H        1 ZINC000438893617    0.0700
41     H41     4.9235    1.9232   -8.1137 H        1 ZINC000438893617    0.0800
42     H42     6.5774    1.2654   -8.1333 H        1 ZINC000438893617    0.0700
43     H43     6.4746    3.4504   -9.3012 H        1 ZINC000438893617    0.0800
44     H44     4.1074    3.3089  -10.0258 H        1 ZINC000438893617    0.0600
45     H45     5.1799    3.6384  -11.4076 H        1 ZINC000438893617    0.0700
46     H46     3.5183    1.8855  -11.9688 H        1 ZINC000438893617    0.0800
47     H47     5.1264    0.1630  -12.7406 H        1 ZINC000438893617    0.0600
48     H48     5.7749    1.8012  -12.9930 H        1 ZINC000438893617    0.0700
49     H49     7.4936    0.3044  -12.0160 H        1 ZINC000438893617    0.0700
50     H50     7.5014    2.7151  -11.4352 H        1 ZINC000438893617    0.0700
51     H51     8.0828    1.7279  -10.0730 H        1 ZINC000438893617    0.0600
52     H52     7.1724   -0.5717   -9.7186 H        1 ZINC000438893617    0.0700
53     H53     5.9424   -1.2228  -10.8284 H        1 ZINC000438893617    0.0700
54     H54     3.6210   -0.2995  -10.8009 H        1 ZINC000438893617    0.0700
55     H55     3.1971    1.0093   -9.6715 H        1 ZINC000438893617    0.0800
56     H56     3.5750    1.4339   -8.3083 H        1 ZINC000438893617    0.1300
57     H57     2.0309    0.6056   -7.9787 H        1 ZINC000438893617    0.0800
58     H58     2.3620    2.1969   -6.1903 H        1 ZINC000438893617    0.1100
59     H59     4.0429    1.6556   -5.9442 H        1 ZINC000438893617    0.0700
60     H60    -0.1330   -2.8615    1.6721 H        1 ZINC000438893617    0.1700
61     H61    -0.2101   -0.3518    2.0396 H        1 ZINC000438893617    0.1400
@<TRIPOS>BOND
1     1     2     1
2     1     32    1
3     1     33    1
4     1     34    1
5     2     31    1
6     2     3     2
7     3     4     1
8     3     29    1
9     4     5     1
10    4     7     1
11    4     6     1
12    6     7     1
13    6     35    1
14    6     36    1
15    7     8     1
16    7     9     1
17    9     10    2
18    9     11    am
19    11    28    1
20    11    12    1
21    12    13    1
22    12    37    1
23    12    38    1
24    13    14    1
25    13    39    1
26    13    40    1
27    14    15    am
28    14    27    1
29    15    16    2
30    15    17    1
31    17    25    1
32    17    26    1
33    17    18    1
34    18    19    1
35    18    41    1
36    18    42    1
37    19    24    1
38    19    20    1
39    19    43    1
40    20    21    1
41    20    44    1
42    20    45    1
43    21    22    1
44    21    26    1
45    21    46    1
46    22    23    1
47    22    47    1
48    22    48    1
49    23    24    1
50    23    25    1
51    23    49    1
52    24    50    1
53    24    51    1
54    25    52    1
55    25    53    1
56    26    54    1
57    26    55    1
58    27    28    1
59    27    56    1
60    27    57    1
61    28    58    1
62    28    59    1
63    29    30    1
64    30    31    2
65    30    60    1
66    31    61    1
@<TRIPOS>SUBSTRUCTURE
1   ZINC000438893617 1     RESIDUE    1   A     ZIN   1
@<TRIPOS>MOLECULE
ZINC000051488227
55	58	1	0	0
SMALL
USER_CHARGES
@<TRIPOS>ATOM
1      O1      0.0021   -0.0041    0.0020 O.2      1 ZINC000051488227   -0.5000
2      C2     -0.0143    1.2041    0.0087 C.2      1 ZINC000051488227    0.4800
3      O3      1.1389    1.8910    0.0013 O.3      1 ZINC000051488227   -0.3400
4      C4      2.3672    1.1168   -0.0145 C.3      1 ZINC000051488227    0.1100
5      C5      3.5497    2.0510   -0.0208 C.ar     1 ZINC000051488227   -0.1400
6      C6      4.0762    2.4898   -1.2216 C.ar     1 ZINC000051488227   -0.0500
7      C7      5.1602    3.3461   -1.2301 C.ar     1 ZINC000051488227   -0.1500
8      C8      5.7202    3.7662   -0.0323 C.ar     1 ZINC000051488227    0.1500
9      O9      6.7863    4.6090   -0.0380 O.3      1 ZINC000051488227   -0.3100
10     C10     7.3110    4.9999    1.2324 C.3      1 ZINC000051488227    0.1100
11     C11     8.4806    5.9282    1.0287 C.ar     1 ZINC000051488227    0.1200
12     C12     8.8687    6.2664   -0.2536 C.ar     1 ZINC000051488227   -0.1500
13     C13     9.9459    7.1217   -0.4301 C.ar     1 ZINC000051488227   -0.0700
14     C14    10.5947    7.6065    0.6950 C.ar     1 ZINC000051488227   -0.1700
15     C15    10.1495    7.2239    1.9465 C.ar     1 ZINC000051488227    0.1100
16     N16     9.1183    6.4126    2.0765 N.ar     1 ZINC000051488227   -0.4800
17     C17     5.1897    3.3249    1.1712 C.ar     1 ZINC000051488227   -0.2100
18     C18     4.1027    2.4724    1.1743 C.ar     1 ZINC000051488227   -0.0500
19     C19    -1.3295    1.9397    0.0189 C.3      1 ZINC000051488227    0.0000
20     C20    -1.4151    2.8022    1.2517 C.ar     1 ZINC000051488227   -0.0900
21     C21    -2.4284    2.5975    2.1694 C.ar     1 ZINC000051488227   -0.1100
22     C22    -2.5069    3.3886    3.3003 C.ar     1 ZINC000051488227   -0.1200
23     C23    -1.5719    4.3841    3.5137 C.ar     1 ZINC000051488227   -0.1100
24     C24    -0.5581    4.5882    2.5964 C.ar     1 ZINC000051488227   -0.1200
25     C25    -0.4770    3.7943    1.4677 C.ar     1 ZINC000051488227   -0.1000
26     C26    -1.4350    2.8181   -1.2315 C.3      1 ZINC000051488227   -0.1400
27     C27    -1.4251    1.9254   -2.4752 C.3      1 ZINC000051488227    0.0600
28     O28    -2.5025    0.9899   -2.3970 O.3      1 ZINC000051488227   -0.3800
29     C29    -2.4310    0.1102   -1.2730 C.3      1 ZINC000051488227    0.0500
30     C30    -2.4814    0.9301    0.0189 C.3      1 ZINC000051488227   -0.1400
31     H31     2.4091    0.4836    0.8717 H        1 ZINC000051488227    0.0800
32     H32     2.3921    0.4932   -0.9082 H        1 ZINC000051488227    0.0800
33     H33     3.6399    2.1624   -2.1538 H        1 ZINC000051488227    0.1300
34     H34     5.5715    3.6880   -2.1683 H        1 ZINC000051488227    0.1400
35     H35     6.5363    5.5114    1.8037 H        1 ZINC000051488227    0.0900
36     H36     7.6400    4.1151    1.7774 H        1 ZINC000051488227    0.0900
37     H37     8.3401    5.8694   -1.1076 H        1 ZINC000051488227    0.1400
38     H38    10.2718    7.4032   -1.4205 H        1 ZINC000051488227    0.1400
39     H39    11.4376    8.2743    0.5950 H        1 ZINC000051488227    0.1400
40     H40    10.6498    7.5969    2.8280 H        1 ZINC000051488227    0.1600
41     H41     5.6241    3.6502    2.1049 H        1 ZINC000051488227    0.1300
42     H42     3.6891    2.1288    2.1110 H        1 ZINC000051488227    0.1300
43     H43    -3.1589    1.8197    2.0027 H        1 ZINC000051488227    0.1300
44     H44    -3.2990    3.2292    4.0169 H        1 ZINC000051488227    0.1300
45     H45    -1.6337    5.0027    4.3969 H        1 ZINC000051488227    0.1200
46     H46     0.1723    5.3662    2.7630 H        1 ZINC000051488227    0.1200
47     H47     0.3151    3.9538    0.7511 H        1 ZINC000051488227    0.1300
48     H48    -2.3639    3.3876   -1.1994 H        1 ZINC000051488227    0.0900
49     H49    -0.5879    3.5031   -1.2681 H        1 ZINC000051488227    0.0900
50     H50    -1.5430    2.5419   -3.3662 H        1 ZINC000051488227    0.1000
51     H51    -0.4790    1.3866   -2.5283 H        1 ZINC000051488227    0.0500
52     H52    -3.2736   -0.5808   -1.2981 H        1 ZINC000051488227    0.1000
53     H53    -1.4982   -0.4523   -1.3104 H        1 ZINC000051488227    0.0700
54     H54    -2.3826    0.2648    0.8766 H        1 ZINC000051488227    0.0900
55     H55    -3.4314    1.4614    0.0763 H        1 ZINC000051488227    0.0900
@<TRIPOS>BOND
1     1     2     2
2     2     3     1
3     2     19    1
4     3     4     1
5     4     5     1
6     4     31    1
7     4     32    1
8     5     18    ar
9     5     6     ar
10    6     7     ar
11    6     33    1
12    7     8     ar
13    7     34    1
14    8     9     1
15    8     17    ar
16    9     10    1
17    10    11    1
18    10    35    1
19    10    36    1
20    11    16    ar
21    11    12    ar
22    12    13    ar
23    12    37    1
24    13    14    ar
25    13    38    1
26    14    15    ar
27    14    39    1
28    15    16    ar
29    15    40    1
30    17    18    ar
31    17    41    1
32    18    42    1
33    19    30    1
34    19    20    1
35    19    26    1
36    20    25    ar
37    20    21    ar
38    21    22    ar
39    21    43    1
40    22    23    ar
41    22    44    1
42    23    24    ar
43    23    45    1
44    24    25    ar
45    24    46    1
46    25    47    1
47    26    27    1
48    26    48    1
49    26    49    1
50    27    28    1
51    27    50    1
52    27    51    1
53    28    29    1
54    29    30    1
55    29    52    1
56    29    53    1
57    30    54    1
58    30    55    1
@<TRIPOS>SUBSTRUCTURE
1   ZINC000051488227 1     RESIDUE    1   A     ZIN   1
@<TRIPOS>MOLECULE
ZINC000493443319
49	51	0	0	0
SMALL
USER_CHARGES
@<TRIPOS>ATOM
1 C1        3.7489    -7.8700     4.7868 C.3    1 <0>      -0.1500
2 C2        2.9148    -7.2157     3.6836 C.3    1 <0>       0.0500
3 O3        1.5972    -7.7686     3.6913 O.3    1 <0>      -0.3200
4 C4        0.7223    -7.2921     2.7657 C.ar   1 <0>       0.1000
5 C5        1.1272    -6.3171     1.8661 C.ar   1 <0>      -0.1700
6 C6        0.2386    -5.8330     0.9259 C.ar   1 <0>      -0.1100
7 C7       -1.0585    -6.3223     0.8811 C.ar   1 <0>       0.0800
8 O8       -1.9334    -5.8455    -0.0443 O.3    1 <0>      -0.3000
9 C9       -3.2404    -6.4231    -0.0595 C.3    1 <0>       0.1000
10 C10      -3.9602    -6.0907     1.2491 C.3    1 <0>      -0.1800
11 C11      -4.0352    -5.8555    -1.2372 C.3    1 <0>      -0.1500
12 C12      -3.1269    -7.9189    -0.2044 C.2    1 <0>       0.5100
13 O13      -3.7310    -8.6490     0.5525 O.2    1 <0>      -0.5200
14 N14      -2.3541    -8.4451    -1.1751 N.am   1 <0>      -0.6000
15 C15      -1.5606    -7.5661    -2.0431 C.3    1 <0>       0.0700
16 C16      -0.0825    -7.9796    -1.9595 C.3    1 <0>       0.1300
17 N17      -0.0285    -9.4432    -2.0803 N.am   1 <0>      -0.6300
18 C18       0.6904   -10.1779    -2.9306 C.2    1 <0>       0.6500
19 O19       1.5564    -9.7122    -3.6445 O.2    1 <0>      -0.5200
20 O20       0.3666   -11.4780    -2.9228 O.3    1 <0>      -0.3200
21 C21      -0.6398   -11.7222    -1.8959 C.3    1 <0>       0.0500
22 C22      -0.8402   -10.3476    -1.2375 C.3    1 <0>       0.0800
23 H23      -0.4995   -10.3458    -0.2021 H      1 <0>       0.1100
24 C24      -2.2976    -9.9027    -1.3649 C.3    1 <0>       0.1000
25 C25      -1.4629    -7.2983     1.7797 C.ar   1 <0>      -0.1800
26 C26      -0.5731    -7.7851     2.7175 C.ar   1 <0>      -0.1100
27 H27       4.7540    -7.4483     4.7810 H      1 <0>       0.0800
28 H28       3.2823    -7.6836     5.7541 H      1 <0>       0.0700
29 H29       3.8047    -8.9443     4.6113 H      1 <0>       0.0700
30 H30       2.8591    -6.1413     3.8591 H      1 <0>       0.0600
31 H31       3.3815    -7.4021     2.7164 H      1 <0>       0.0600
32 H32       2.1372    -5.9361     1.9011 H      1 <0>       0.1400
33 H33       0.5536    -5.0733     0.2259 H      1 <0>       0.1400
34 H34      -4.1593    -5.0199     1.2923 H      1 <0>       0.0800
35 H35      -4.9020    -6.6375     1.2948 H      1 <0>       0.0900
36 H36      -3.3320    -6.3778     2.0924 H      1 <0>       0.0800
37 H37      -3.4789    -6.0141    -2.1610 H      1 <0>       0.0800
38 H38      -4.9990    -6.3604    -1.3021 H      1 <0>       0.0900
39 H39      -4.1939    -4.7876    -1.0874 H      1 <0>       0.0900
40 H40      -1.9078    -7.6599    -3.0720 H      1 <0>       0.0800
41 H41      -1.6694    -6.5330    -1.7130 H      1 <0>       0.1300
42 H42       0.4776    -7.5197    -2.7738 H      1 <0>       0.1100
43 H43       0.3350    -7.6713    -1.0010 H      1 <0>       0.0800
44 H44      -1.5695   -12.0691    -2.3468 H      1 <0>       0.1100
45 H45      -0.2743   -12.4455    -1.1669 H      1 <0>       0.1100
46 H46      -2.9012   -10.3967    -0.6035 H      1 <0>       0.1100
47 H47      -2.6745   -10.1558    -2.3559 H      1 <0>       0.0800
48 H48      -2.4728    -7.6796     1.7446 H      1 <0>       0.1600
49 H49      -0.8881    -8.5451     3.4172 H      1 <0>       0.1300
@<TRIPOS>BOND
1    1    2 1
2    1   27 1
3    1   28 1
4    1   29 1
5    2    3 1
6    2   30 1
7    2   31 1
8    3    4 1
9    4   26 ar
10    4    5 ar
11    5    6 ar
12    5   32 1
13    6    7 ar
14    6   33 1
15    7    8 1
16    7   25 ar
17    8    9 1
18    9   10 1
19    9   11 1
20    9   12 1
21   10   34 1
22   10   35 1
23   10   36 1
24   11   37 1
25   11   38 1
26   11   39 1
27   12   13 2
28   12   14 am
29   14   24 1
30   14   15 1
31   15   16 1
32   15   40 1
33   15   41 1
34   16   17 1
35   16   42 1
36   16   43 1
37   17   22 1
38   17   18 am
39   18   19 2
40   18   20 1
41   20   21 1
42   21   22 1
43   21   44 1
44   21   45 1
45   22   23 1
46   22   24 1
47   24   46 1
48   24   47 1
49   25   26 ar
50   25   48 1
51   26   49 1
@<TRIPOS>MOLECULE
ZINC001573443776
54	56	1	0	0
SMALL
USER_CHARGES
@<TRIPOS>ATOM
1      C1      0.0350   -0.7636    1.3032 C.3      1 ZINC001573443776   -0.1800
2      C2      0.0021   -0.0041    0.0020 C.2      1 ZINC001573443776    0.5100
3      O3     -0.1141    1.2032    0.0073 O.2      1 ZINC001573443776   -0.5400
4      N4      0.1018   -0.6664   -1.1675 N.am     1 ZINC001573443776   -0.6100
5      C5      0.1973    0.0668   -2.4372 C.3      1 ZINC001573443776    0.1100
6      C6     -0.8932   -0.4435   -3.3845 C.3      1 ZINC001573443776   -0.1300
7      C7     -0.7713   -1.9625   -3.5251 C.3      1 ZINC001573443776   -0.1000
8      C8     -0.9722   -2.6208   -2.1582 C.3      1 ZINC001573443776   -0.1200
9      H9     -1.9518   -2.3500   -1.7643 H        1 ZINC001573443776    0.1000
10     C10    -0.8849   -4.1183   -2.3034 C.2      1 ZINC001573443776    0.5200
11     O11    -0.6821   -4.6111   -3.3928 O.2      1 ZINC001573443776   -0.5300
12     N12    -1.0323   -4.9098   -1.2225 N.am     1 ZINC001573443776   -0.7300
13     C13    -0.9475   -6.3655   -1.3637 C.3      1 ZINC001573443776    0.1100
14     C14    -1.1483   -7.0230    0.0032 C.3      1 ZINC001573443776    0.1400
15     H15    -2.1606   -6.8260    0.3559 H        1 ZINC001573443776    0.0900
16     C16    -0.9364   -8.5332   -0.1212 C.3      1 ZINC001573443776   -0.1700
17     N17    -0.1828   -6.4714    0.9570 N.pl3    1 ZINC001573443776   -0.7200
18     C18    -0.4632   -6.4884    2.3175 C.ar     1 ZINC001573443776    0.4300
19     C19    -1.6616   -7.0369    2.7652 C.ar     1 ZINC001573443776   -0.2500
20     C20    -1.9326   -7.0503    4.1194 C.ar     1 ZINC001573443776    0.0100
21     C21    -0.9843   -6.5079    4.9932 C.ar     1 ZINC001573443776   -0.1400
22     C22    -1.2286   -6.4991    6.4572 C.2      1 ZINC001573443776    0.2400
23     N23    -2.2896   -6.9711    7.0813 N.2      1 ZINC001573443776   -0.3000
24     N24    -2.1231   -6.7768    8.3443 N.pl3    1 ZINC001573443776   -0.2300
25     N25    -0.9906   -6.1969    8.5404 N.2      1 ZINC001573443776   -0.0500
26     N26    -0.4107   -6.0150    7.4027 N.2      1 ZINC001573443776   -0.2700
27     C27     0.1915   -5.9771    4.4712 C.ar     1 ZINC001573443776    0.2300
28     C28     1.2216   -5.3896    5.4011 C.3      1 ZINC001573443776   -0.1200
29     N29     0.4157   -5.9873    3.1726 N.ar     1 ZINC001573443776   -0.5400
30     C30     0.1231   -2.1352   -1.1966 C.3      1 ZINC001573443776    0.1200
31     H31    -0.9844   -0.9728    1.6276 H        1 ZINC001573443776    0.0900
32     H32     0.5714   -1.7019    1.1628 H        1 ZINC001573443776    0.0800
33     H33     0.5416   -0.1652    2.0604 H        1 ZINC001573443776    0.1000
34     H34     0.0545    1.1320   -2.2557 H        1 ZINC001573443776    0.1000
35     H35     1.1773   -0.1018   -2.8837 H        1 ZINC001573443776    0.0700
36     H36    -1.8736   -0.1931   -2.9791 H        1 ZINC001573443776    0.0700
37     H37    -0.7733    0.0232   -4.3622 H        1 ZINC001573443776    0.0800
38     H38    -1.5307   -2.3252   -4.2179 H        1 ZINC001573443776    0.0800
39     H39     0.2181   -2.2136   -3.9072 H        1 ZINC001573443776    0.0700
40     H40    -1.1945   -4.5157   -0.3512 H        1 ZINC001573443776    0.4000
41     H41    -1.7214   -6.7098   -2.0497 H        1 ZINC001573443776    0.0900
42     H42     0.0327   -6.6360   -1.7565 H        1 ZINC001573443776    0.0800
43     H43    -1.6547   -8.9436   -0.8309 H        1 ZINC001573443776    0.0700
44     H44     0.0760   -8.7302   -0.4739 H        1 ZINC001573443776    0.0700
45     H45    -1.0795   -9.0016    0.8525 H        1 ZINC001573443776    0.0700
46     H46     0.6522   -6.0942    0.6386 H        1 ZINC001573443776    0.4100
47     H47    -2.3713   -7.4468    2.0619 H        1 ZINC001573443776    0.1400
48     H48    -2.8546   -7.4692    4.4946 H        1 ZINC001573443776    0.1400
49     H49    -2.7525   -7.0279    9.0384 H        1 ZINC001573443776    0.4800
50     H50     1.9213   -6.1676    5.7065 H        1 ZINC001573443776    0.0800
51     H51     1.7632   -4.5950    4.8879 H        1 ZINC001573443776    0.0800
52     H52     0.7255   -4.9812    6.2815 H        1 ZINC001573443776    0.1100
53     H53     1.0954   -2.4851   -1.5435 H        1 ZINC001573443776    0.0800
54     H54    -0.0711   -2.5221   -0.1962 H        1 ZINC001573443776    0.0900
@<TRIPOS>BOND
1     1     2     1
2     1     31    1
3     1     32    1
4     1     33    1
5     2     3     2
6     2     4     am
7     4     30    1
8     4     5     1
9     5     6     1
10    5     34    1
11    5     35    1
12    6     7     1
13    6     36    1
14    6     37    1
15    7     8     1
16    7     38    1
17    7     39    1
18    8     9     1
19    8     10    1
20    8     30    1
21    10    11    2
22    10    12    am
23    12    13    1
24    12    40    1
25    13    14    1
26    13    41    1
27    13    42    1
28    14    15    1
29    14    16    1
30    14    17    1
31    16    43    1
32    16    44    1
33    16    45    1
34    17    18    1
35    17    46    1
36    18    29    ar
37    18    19    ar
38    19    20    ar
39    19    47    1
40    20    21    ar
41    20    48    1
42    21    22    1
43    21    27    ar
44    22    26    1
45    22    23    2
46    23    24    1
47    24    25    1
48    24    49    1
49    25    26    2
50    27    28    1
51    27    29    ar
52    28    50    1
53    28    51    1
54    28    52    1
55    30    53    1
56    30    54    1
@<TRIPOS>SUBSTRUCTURE
1   ZINC001573443776 1     RESIDUE    1   A     ZIN   1
@<TRIPOS>MOLECULE
ZINC000263872566
56	57	1	0	0
SMALL
USER_CHARGES
@<TRIPOS>ATOM
1      C1      0.0094    1.5284   -0.0039 C.3      1 ZINC000263872566   -0.1800
2      C2      0.0260   -0.0015   -0.0105 C.3      1 ZINC000263872566    0.1400
3      H3     -0.9977   -0.3760   -0.0056 H        1 ZINC000263872566    0.0700
4      O4      0.6972   -0.4655   -1.1836 O.3      1 ZINC000263872566   -0.5600
5      C5      0.7496   -0.5014    1.2132 C.ar     1 ZINC000263872566   -0.0800
6      C6      2.1316   -0.5156    1.2413 C.ar     1 ZINC000263872566   -0.0900
7      C7      2.7955   -0.9742    2.3637 C.ar     1 ZINC000263872566   -0.1000
8      C8      2.0773   -1.4180    3.4583 C.ar     1 ZINC000263872566   -0.1100
9      C9      2.8010   -1.9183    4.6819 C.3      1 ZINC000263872566    0.1800
10     N10     3.0390   -0.8012    5.5993 N.am     1 ZINC000263872566   -0.7400
11     C11     3.6760   -1.0131    6.7680 C.2      1 ZINC000263872566    0.7100
12     O12     3.9726   -2.1438    7.1025 O.2      1 ZINC000263872566   -0.5900
13     N13     3.9842    0.0285    7.5660 N.am     1 ZINC000263872566   -0.6300
14     C14     3.5278    1.3854    7.2355 C.3      1 ZINC000263872566    0.1100
15     C15     2.7840    1.9633    8.4436 C.3      1 ZINC000263872566   -0.1200
16     C16     3.6860    1.8866    9.6775 C.3      1 ZINC000263872566   -0.0800
17     C17     2.9702    2.4854   10.8607 C.2      1 ZINC000263872566    0.4700
18     O18     1.8534    2.9280   10.7306 O.2      1 ZINC000263872566   -0.5000
19     O19     3.5732    2.5271   12.0592 O.3      1 ZINC000263872566   -0.3500
20     C20     2.8241    3.1180   13.1538 C.3      1 ZINC000263872566    0.1200
21     C21     1.5312    2.3293   13.3713 C.3      1 ZINC000263872566   -0.1800
22     C22     3.6675    3.0768   14.4297 C.3      1 ZINC000263872566   -0.1400
23     C23     2.4844    4.5705   12.8138 C.3      1 ZINC000263872566   -0.1800
24     C24     4.0251    0.4239    9.9735 C.3      1 ZINC000263872566   -0.1300
25     C25     4.7779   -0.1724    8.7860 C.3      1 ZINC000263872566    0.1300
26     C26     0.6953   -1.4024    3.4308 C.ar     1 ZINC000263872566   -0.1000
27     C27     0.0315   -0.9404    2.3098 C.ar     1 ZINC000263872566   -0.1100
28     H28     1.0330    1.9028   -0.0088 H        1 ZINC000263872566    0.0700
29     H29    -0.5141    1.8899   -0.8890 H        1 ZINC000263872566    0.0600
30     H30    -0.5026    1.8823    0.8909 H        1 ZINC000263872566    0.0700
31     H31     0.2853   -0.1810   -2.0110 H        1 ZINC000263872566    0.3800
32     H32     2.6927   -0.1689    0.3861 H        1 ZINC000263872566    0.1300
33     H33     3.8752   -0.9860    2.3854 H        1 ZINC000263872566    0.1300
34     H34     2.1935   -2.6742    5.1796 H        1 ZINC000263872566    0.0800
35     H35     3.7548   -2.3554    4.3865 H        1 ZINC000263872566    0.0800
36     H36     2.7382    0.0909    5.3657 H        1 ZINC000263872566    0.4000
37     H37     4.3876    2.0131    7.0012 H        1 ZINC000263872566    0.0800
38     H38     2.8566    1.3463    6.3775 H        1 ZINC000263872566    0.0800
39     H39     2.5238    3.0034    8.2472 H        1 ZINC000263872566    0.0900
40     H40     1.8754    1.3878    8.6208 H        1 ZINC000263872566    0.0800
41     H41     4.6053    2.4416    9.4903 H        1 ZINC000263872566    0.1100
42     H42     1.7733    1.2945   13.6136 H        1 ZINC000263872566    0.0600
43     H43     0.9689    2.7729   14.1930 H        1 ZINC000263872566    0.0700
44     H44     0.9304    2.3587   12.4623 H        1 ZINC000263872566    0.0800
45     H45     4.5885    3.6386   14.2748 H        1 ZINC000263872566    0.0700
46     H46     3.1051    3.5203   15.2514 H        1 ZINC000263872566    0.0800
47     H47     3.9095    2.0419   14.6720 H        1 ZINC000263872566    0.0700
48     H48     1.8835    4.5999   11.9048 H        1 ZINC000263872566    0.0800
49     H49     1.9221    5.0141   13.6354 H        1 ZINC000263872566    0.0700
50     H50     3.4054    5.1324   12.6588 H        1 ZINC000263872566    0.0600
51     H51     4.6484    0.3684   10.8660 H        1 ZINC000263872566    0.0900
52     H52     3.1049   -0.1371   10.1363 H        1 ZINC000263872566    0.0700
53     H53     4.9341   -1.2385    8.9504 H        1 ZINC000263872566    0.1000
54     H54     5.7403    0.3273    8.6752 H        1 ZINC000263872566    0.0700
55     H55     0.1342   -1.7489    4.2861 H        1 ZINC000263872566    0.1300
56     H56    -1.0482   -0.9282    2.2883 H        1 ZINC000263872566    0.1300
@<TRIPOS>BOND
1     1     2     1
2     1     28    1
3     1     29    1
4     1     30    1
5     2     3     1
6     2     4     1
7     2     5     1
8     4     31    1
9     5     27    ar
10    5     6     ar
11    6     7     ar
12    6     32    1
13    7     8     ar
14    7     33    1
15    8     9     1
16    8     26    ar
17    9     10    1
18    9     34    1
19    9     35    1
20    10    11    am
21    10    36    1
22    11    12    2
23    11    13    am
24    13    25    1
25    13    14    1
26    14    15    1
27    14    37    1
28    14    38    1
29    15    16    1
30    15    39    1
31    15    40    1
32    16    17    1
33    16    24    1
34    16    41    1
35    17    18    2
36    17    19    1
37    19    20    1
38    20    21    1
39    20    22    1
40    20    23    1
41    21    42    1
42    21    43    1
43    21    44    1
44    22    45    1
45    22    46    1
46    22    47    1
47    23    48    1
48    23    49    1
49    23    50    1
50    24    25    1
51    24    51    1
52    24    52    1
53    25    53    1
54    25    54    1
55    26    27    ar
56    26    55    1
57    27    56    1
@<TRIPOS>SUBSTRUCTURE
1   ZINC000263872566 1     RESIDUE    1   A     ZIN   1
@<TRIPOS>MOLECULE
ZINC001344051361
53	56	1	0	0
SMALL
USER_CHARGES
@<TRIPOS>ATOM
1      O1     -0.1873    0.1566    0.5767 O.2      1 ZINC001344051361   -0.4800
2      C2     -0.1965    1.2695    0.1063 C.2      1 ZINC001344051361    0.4800
3      O3      0.8987    2.0413    0.1868 O.3      1 ZINC001344051361   -0.3500
4      C4      2.0180    1.5197    0.9507 C.3      1 ZINC001344051361    0.0700
5      C5      3.1174    2.5806    1.0337 C.3      1 ZINC001344051361   -0.1000
6      H6      2.7120    3.4908    1.4756 H        1 ZINC001344051361    0.0900
7      C7      4.2657    2.0594    1.9007 C.3      1 ZINC001344051361   -0.1200
8      C8      5.3513    3.1324    2.0113 C.3      1 ZINC001344051361   -0.1300
9      C9      5.9014    3.4423    0.6156 C.3      1 ZINC001344051361    0.0800
10     N10     4.7819    3.8049   -0.2642 N.am     1 ZINC001344051361   -0.6100
11     C11     4.8004    4.9600   -0.9584 C.2      1 ZINC001344051361    0.5600
12     O12     3.8240    5.3008   -1.5972 O.2      1 ZINC001344051361   -0.5300
13     C13     6.0082    5.8126   -0.9429 C.ar     1 ZINC001344051361   -0.1300
14     C14     7.2678    5.2402   -0.7591 C.ar     1 ZINC001344051361   -0.1000
15     C15     8.3909    6.0414   -0.7461 C.ar     1 ZINC001344051361   -0.1300
16     C16     8.2704    7.4094   -0.9143 C.ar     1 ZINC001344051361   -0.0900
17     C17     7.0247    7.9832   -1.0965 C.ar     1 ZINC001344051361   -0.1300
18     C18     5.8942    7.1926   -1.1178 C.ar     1 ZINC001344051361   -0.0600
19     C19     3.6416    2.8848   -0.3732 C.3      1 ZINC001344051361    0.1200
20     C20    -1.4356    1.7887   -0.5764 C.3      1 ZINC001344051361    0.0200
21     O21    -2.6742    1.2861   -0.0710 O.3      1 ZINC001344051361   -0.2500
22     C22    -3.0040    1.6255    1.2029 C.ar     1 ZINC001344051361    0.1200
23     C23    -2.2143    2.5205    1.9101 C.ar     1 ZINC001344051361   -0.2000
24     C24    -2.5520    2.8643    3.2048 C.ar     1 ZINC001344051361   -0.0800
25     C25    -3.6757    2.3169    3.7960 C.ar     1 ZINC001344051361   -0.1500
26     C26    -4.4641    1.4245    3.0934 C.ar     1 ZINC001344051361   -0.0800
27     C27    -4.1342    1.0822    1.7963 C.ar     1 ZINC001344051361   -0.1400
28     C28    -1.4119    3.2331   -1.0804 C.3      1 ZINC001344051361   -0.1700
29     C29    -1.3486    2.0739   -2.0770 C.3      1 ZINC001344051361   -0.1100
30     H30     1.6838    1.2634    1.9560 H        1 ZINC001344051361    0.0800
31     H31     2.4092    0.6287    0.4597 H        1 ZINC001344051361    0.0800
32     H32     3.8898    1.8193    2.8953 H        1 ZINC001344051361    0.0700
33     H33     4.6864    1.1628    1.4456 H        1 ZINC001344051361    0.0700
34     H34     4.9253    4.0378    2.4437 H        1 ZINC001344051361    0.0700
35     H35     6.1581    2.7694    2.6480 H        1 ZINC001344051361    0.0800
36     H36     6.6031    4.2742    0.6758 H        1 ZINC001344051361    0.1100
37     H37     6.4078    2.5624    0.2188 H        1 ZINC001344051361    0.0700
38     H38     7.3631    4.1726   -0.6269 H        1 ZINC001344051361    0.1400
39     H39     9.3662    5.5998   -0.6040 H        1 ZINC001344051361    0.1300
40     H40     9.1527    8.0322   -0.9030 H        1 ZINC001344051361    0.1300
41     H41     6.9375    9.0517   -1.2269 H        1 ZINC001344051361    0.1300
42     H42     4.9224    7.6417   -1.2604 H        1 ZINC001344051361    0.1300
43     H43     3.9633    1.9592   -0.8506 H        1 ZINC001344051361    0.0700
44     H44     2.8529    3.3489   -0.9655 H        1 ZINC001344051361    0.1000
45     H45    -1.3361    2.9477    1.4490 H        1 ZINC001344051361    0.1300
46     H46    -1.9375    3.5609    3.7558 H        1 ZINC001344051361    0.1300
47     H47    -3.9378    2.5867    4.8084 H        1 ZINC001344051361    0.1300
48     H48    -5.3411    0.9980    3.5575 H        1 ZINC001344051361    0.1300
49     H49    -4.7503    0.3850    1.2479 H        1 ZINC001344051361    0.1300
50     H50    -2.3411    3.8003   -1.0266 H        1 ZINC001344051361    0.1200
51     H51    -0.5000    3.8078   -0.9183 H        1 ZINC001344051361    0.1200
52     H52    -0.3951    1.8860   -2.5706 H        1 ZINC001344051361    0.1200
53     H53    -2.2362    1.8785   -2.6788 H        1 ZINC001344051361    0.1200
@<TRIPOS>BOND
1     1     2     2
2     2     3     1
3     2     20    1
4     3     4     1
5     4     5     1
6     4     30    1
7     4     31    1
8     5     6     1
9     5     19    1
10    5     7     1
11    7     8     1
12    7     32    1
13    7     33    1
14    8     9     1
15    8     34    1
16    8     35    1
17    9     10    1
18    9     36    1
19    9     37    1
20    10    11    am
21    10    19    1
22    11    12    2
23    11    13    1
24    13    18    ar
25    13    14    ar
26    14    15    ar
27    14    38    1
28    15    16    ar
29    15    39    1
30    16    17    ar
31    16    40    1
32    17    18    ar
33    17    41    1
34    18    42    1
35    19    43    1
36    19    44    1
37    20    29    1
38    20    21    1
39    20    28    1
40    21    22    1
41    22    27    ar
42    22    23    ar
43    23    24    ar
44    23    45    1
45    24    25    ar
46    24    46    1
47    25    26    ar
48    25    47    1
49    26    27    ar
50    26    48    1
51    27    49    1
52    28    29    1
53    28    50    1
54    28    51    1
55    29    52    1
56    29    53    1
@<TRIPOS>SUBSTRUCTURE
1   ZINC001344051361 1     RESIDUE    1   A     ZIN   1
@<TRIPOS>MOLECULE
ZINC000013809319
55	57	1	0	0
SMALL
USER_CHARGES
@<TRIPOS>ATOM
1      C1     -0.0187    1.5258    0.0104 C.3      1 ZINC000013809319   -0.1500
2      C2      0.0021   -0.0041    0.0020 C.3      1 ZINC000013809319    0.0500
3      O3      0.6709   -0.4649   -1.1737 O.3      1 ZINC000013809319   -0.3100
4      C4      0.7767   -1.8089   -1.3360 C.ar     1 ZINC000013809319    0.1500
5      C5      0.2408   -2.6663   -0.3832 C.ar     1 ZINC000013809319   -0.2200
6      C6      0.3459   -4.0306   -0.5449 C.ar     1 ZINC000013809319   -0.0300
7      C7      0.9916   -4.5510   -1.6676 C.ar     1 ZINC000013809319   -0.1100
8      C8      1.1060   -6.0159   -1.8450 C.2      1 ZINC000013809319    0.2300
9      C9      1.7512   -6.5362   -2.9552 C.2      1 ZINC000013809319   -0.2900
10     C10     1.8376   -7.9333   -3.0841 C.2      1 ZINC000013809319    0.5300
11     O11     2.3971   -8.4359   -4.0451 O.2      1 ZINC000013809319   -0.5400
12     N12     1.2902   -8.7079   -2.1242 N.am     1 ZINC000013809319   -0.5100
13     C13     1.3663  -10.1668   -2.2334 C.3      1 ZINC000013809319    0.0700
14     C14     2.6228  -10.6560   -1.5603 C.2      1 ZINC000013809319    0.5000
15     O15     3.3801   -9.8640   -1.0406 O.2      1 ZINC000013809319   -0.5200
16     N16     2.9049  -11.9737   -1.5359 N.am     1 ZINC000013809319   -0.7200
17     C17     4.1264  -12.4493   -0.8816 C.3      1 ZINC000013809319    0.1300
18     C18     4.2058  -13.9730   -0.9956 C.3      1 ZINC000013809319   -0.0800
19     C19     5.4623  -14.4622   -0.3226 C.ar     1 ZINC000013809319   -0.1200
20     C20     6.6078  -14.6715   -1.0655 C.ar     1 ZINC000013809319   -0.0800
21     C21     7.7609  -15.1210   -0.4485 C.ar     1 ZINC000013809319   -0.1500
22     C22     7.7706  -15.3614    0.9128 C.ar     1 ZINC000013809319   -0.0800
23     C23     6.6275  -15.1532    1.6605 C.ar     1 ZINC000013809319   -0.2100
24     C24     5.4710  -14.6974    1.0449 C.ar     1 ZINC000013809319    0.1300
25     O25     4.3454  -14.4918    1.7780 O.3      1 ZINC000013809319   -0.3100
26     C26     4.4243  -14.7655    3.1784 C.3      1 ZINC000013809319    0.0300
27     C27     0.6740   -8.1457   -1.0650 C.2      1 ZINC000013809319    0.3900
28     N28     0.5894   -6.8516   -0.9272 N.2      1 ZINC000013809319   -0.5300
29     C29     1.5288   -3.6866   -2.6229 C.ar     1 ZINC000013809319   -0.0500
30     C30     1.4154   -2.3234   -2.4574 C.ar     1 ZINC000013809319   -0.1600
31     H31     1.0039    1.9031    0.0027 H        1 ZINC000013809319    0.0700
32     H32    -0.5459    1.8868   -0.8726 H        1 ZINC000013809319    0.0700
33     H33    -0.5289    1.8773    0.9072 H        1 ZINC000013809319    0.0800
34     H34     0.5293   -0.3651    0.8851 H        1 ZINC000013809319    0.0600
35     H35    -1.0205   -0.3814    0.0098 H        1 ZINC000013809319    0.0600
36     H36    -0.2584   -2.2629    0.4855 H        1 ZINC000013809319    0.1300
37     H37    -0.0706   -4.6966    0.1964 H        1 ZINC000013809319    0.1400
38     H38     2.1771   -5.8842   -3.7036 H        1 ZINC000013809319    0.1600
39     H39     0.4976  -10.6132   -1.7495 H        1 ZINC000013809319    0.1300
40     H40     1.3830  -10.4521   -3.2853 H        1 ZINC000013809319    0.1300
41     H41     2.2992  -12.6072   -1.9516 H        1 ZINC000013809319    0.4000
42     H42     4.9951  -12.0030   -1.3655 H        1 ZINC000013809319    0.0700
43     H43     4.1097  -12.1641    0.1703 H        1 ZINC000013809319    0.0700
44     H44     3.3371  -14.4194   -0.5118 H        1 ZINC000013809319    0.0800
45     H45     4.2224  -14.2583   -2.0475 H        1 ZINC000013809319    0.0800
46     H46     6.6027  -14.4844   -2.1291 H        1 ZINC000013809319    0.1300
47     H47     8.6554  -15.2847   -1.0313 H        1 ZINC000013809319    0.1300
48     H48     8.6723  -15.7127    1.3923 H        1 ZINC000013809319    0.1300
49     H49     6.6355  -15.3415    2.7239 H        1 ZINC000013809319    0.1300
50     H50     5.1877  -14.1320    3.6300 H        1 ZINC000013809319    0.0600
51     H51     3.4601  -14.5603    3.6435 H        1 ZINC000013809319    0.1000
52     H52     4.6851  -15.8129    3.3297 H        1 ZINC000013809319    0.0600
53     H53     0.2424   -8.7841   -0.3083 H        1 ZINC000013809319    0.2000
54     H54     2.0290   -4.0859   -3.4928 H        1 ZINC000013809319    0.1400
55     H55     1.8305   -1.6540   -3.1963 H        1 ZINC000013809319    0.1400
@<TRIPOS>BOND
1     1     2     1
2     1     31    1
3     1     32    1
4     1     33    1
5     2     3     1
6     2     34    1
7     2     35    1
8     3     4     1
9     4     30    ar
10    4     5     ar
11    5     6     ar
12    5     36    1
13    6     7     ar
14    6     37    1
15    7     8     1
16    7     29    ar
17    8     28    1
18    8     9     2
19    9     10    1
20    9     38    1
21    10    11    2
22    10    12    am
23    12    13    1
24    12    27    1
25    13    14    1
26    13    39    1
27    13    40    1
28    14    15    2
29    14    16    am
30    16    17    1
31    16    41    1
32    17    18    1
33    17    42    1
34    17    43    1
35    18    19    1
36    18    44    1
37    18    45    1
38    19    24    ar
39    19    20    ar
40    20    21    ar
41    20    46    1
42    21    22    ar
43    21    47    1
44    22    23    ar
45    22    48    1
46    23    24    ar
47    23    49    1
48    24    25    1
49    25    26    1
50    26    50    1
51    26    51    1
52    26    52    1
53    27    28    2
54    27    53    1
55    29    30    ar
56    29    54    1
57    30    55    1
@<TRIPOS>SUBSTRUCTURE
1   ZINC000013809319 1     RESIDUE    1   A     ZIN   1
@<TRIPOS>MOLECULE
ZINC000817655807
41	44	1	0	0
SMALL
USER_CHARGES
@<TRIPOS>ATOM
1      C1     -0.0178    1.4608    0.0101 C.3      1 ZINC000817655807    0.1100
2      N2      0.0021   -0.0041    0.0020 N.am     1 ZINC000817655807   -0.6400
3      C3     -1.1849   -0.8779    0.0027 C.3      1 ZINC000817655807    0.1000
4      C4     -0.5847   -2.2867   -0.0088 C.3      1 ZINC000817655807    0.0500
5      C5     -1.1321   -3.2513    1.0434 C.3      1 ZINC000817655807    0.1200
6      N6     -2.0651   -3.6999   -0.0113 N.am     1 ZINC000817655807   -0.6500
7      C7     -3.2753   -4.2931   -0.0097 C.2      1 ZINC000817655807    0.5500
8      O8     -3.8152   -4.5665    1.0413 O.2      1 ZINC000817655807   -0.5100
9      C9     -3.9576   -4.6166   -1.3139 C.3      1 ZINC000817655807   -0.0900
10     C10    -5.2868   -5.2705   -1.0368 C.ar     1 ZINC000817655807   -0.0600
11     C11    -5.3671   -6.6447   -0.9133 C.ar     1 ZINC000817655807   -0.0900
12     C12    -6.5859   -7.2485   -0.6611 C.ar     1 ZINC000817655807   -0.0300
13     Cl13   -6.6832   -8.9749   -0.5071 Cl       1 ZINC000817655807   -0.0500
14     C14    -7.7306   -6.4752   -0.5308 C.ar     1 ZINC000817655807    0.0600
15     O15    -8.9244   -7.0837   -0.2906 O.3      1 ZINC000817655807   -0.2900
16     C16    -9.9821   -6.2538    0.2021 C.3      1 ZINC000817655807    0.0200
17     C17   -10.0230   -4.9742   -0.6442 C.3      1 ZINC000817655807    0.0200
18     O18    -8.7577   -4.3154   -0.5222 O.3      1 ZINC000817655807   -0.3000
19     C19    -7.6482   -5.0932   -0.6514 C.ar     1 ZINC000817655807    0.0600
20     C20    -6.4224   -4.4942   -0.9009 C.ar     1 ZINC000817655807   -0.0900
21     C21    -1.1415   -3.2378   -1.0684 C.3      1 ZINC000817655807    0.1100
22     O22     0.8477   -2.0868   -0.0142 O.3      1 ZINC000817655807   -0.3000
23     C23     1.1037   -0.7699   -0.0131 C.2      1 ZINC000817655807    0.6400
24     O24     2.2296   -0.3128   -0.0177 O.2      1 ZINC000817655807   -0.5100
25     H25     1.0048    1.8381    0.0023 H        1 ZINC000817655807    0.0900
26     H26    -0.5450    1.8219   -0.8730 H        1 ZINC000817655807    0.0700
27     H27    -0.5280    1.8123    0.9069 H        1 ZINC000817655807    0.0700
28     H28    -1.7781   -0.7200    0.9035 H        1 ZINC000817655807    0.1000
29     H29    -1.7871   -0.7092   -0.8900 H        1 ZINC000817655807    0.1000
30     H30    -0.4189   -4.0148    1.3541 H        1 ZINC000817655807    0.1100
31     H31    -1.6211   -2.7564    1.8824 H        1 ZINC000817655807    0.1000
32     H32    -4.1153   -3.6981   -1.8791 H        1 ZINC000817655807    0.1100
33     H33    -3.3319   -5.2963   -1.8924 H        1 ZINC000817655807    0.1100
34     H34    -4.4771   -7.2481   -1.0141 H        1 ZINC000817655807    0.1400
35     H35   -10.9324   -6.7808    0.1177 H        1 ZINC000817655807    0.1300
36     H36    -9.7938   -5.9988    1.2450 H        1 ZINC000817655807    0.0800
37     H37   -10.2053   -5.2295   -1.6881 H        1 ZINC000817655807    0.0800
38     H38   -10.8150   -4.3189   -0.2817 H        1 ZINC000817655807    0.1300
39     H39    -6.3558   -3.4202   -0.9930 H        1 ZINC000817655807    0.1400
40     H40    -1.6380   -2.7321   -1.8966 H        1 ZINC000817655807    0.1000
41     H41    -0.4312   -3.9972   -1.3953 H        1 ZINC000817655807    0.1100
@<TRIPOS>BOND
1     1     2     1
2     1     25    1
3     1     26    1
4     1     27    1
5     2     23    am
6     2     3     1
7     3     4     1
8     3     28    1
9     3     29    1
10    4     21    1
11    4     5     1
12    4     22    1
13    5     6     1
14    5     30    1
15    5     31    1
16    6     7     am
17    6     21    1
18    7     8     2
19    7     9     1
20    9     10    1
21    9     32    1
22    9     33    1
23    10    20    ar
24    10    11    ar
25    11    12    ar
26    11    34    1
27    12    13    1
28    12    14    ar
29    14    19    ar
30    14    15    1
31    15    16    1
32    16    17    1
33    16    35    1
34    16    36    1
35    17    18    1
36    17    37    1
37    17    38    1
38    18    19    1
39    19    20    ar
40    20    39    1
41    21    40    1
42    21    41    1
43    22    23    1
44    23    24    2
@<TRIPOS>SUBSTRUCTURE
1   ZINC000817655807 1     RESIDUE    1   A     ZIN   1
@<TRIPOS>MOLECULE
ZINC000426567005
54	57	1	0	0
SMALL
USER_CHARGES
@<TRIPOS>ATOM
1      O1      0.0626    0.1135    0.0909 O.2      1 ZINC000426567005   -0.4900
2      C2      0.0446    1.3128    0.2776 C.2      1 ZINC000426567005    0.5200
3      N3      1.1997    1.9852    0.4511 N.am     1 ZINC000426567005   -0.6000
4      C4      2.4197    1.3008    0.4160 C.2      1 ZINC000426567005    0.3000
5      N5      3.6084    1.8346    0.5756 N.2      1 ZINC000426567005   -0.3100
6      N6      4.5627    0.8147    0.4700 N.pl3    1 ZINC000426567005   -0.4600
7      C7      3.9116   -0.3457    0.2425 C.2      1 ZINC000426567005    0.1100
8      C8      4.5483   -1.6999    0.0640 C.3      1 ZINC000426567005   -0.0300
9      C9      5.0973   -1.8553   -1.3759 C.3      1 ZINC000426567005   -0.1200
10     C10     6.1872   -2.9433   -1.2105 C.3      1 ZINC000426567005   -0.1300
11     C11     6.8383   -2.6228    0.1508 C.3      1 ZINC000426567005   -0.1300
12     C12     5.7963   -1.8322    0.9612 C.3      1 ZINC000426567005   -0.1200
13     C13     2.5865   -0.0786    0.2099 C.2      1 ZINC000426567005   -0.2600
14     C14    -1.2563    2.0438    0.3088 C.2      1 ZINC000426567005    0.5200
15     O15    -1.2743    3.2430    0.4955 O.2      1 ZINC000426567005   -0.4900
16     N16    -2.4111    1.3723    0.1298 N.am     1 ZINC000426567005   -0.6400
17     C17    -3.6291    2.0362    0.2538 C.ar     1 ZINC000426567005    0.1700
18     C18    -3.7482    3.3547   -0.1757 C.ar     1 ZINC000426567005   -0.1300
19     C19    -4.9507    4.0137   -0.0546 C.ar     1 ZINC000426567005   -0.0300
20     C20    -6.0529    3.3571    0.5000 C.ar     1 ZINC000426567005   -0.1500
21     C21    -7.3437    4.0604    0.6309 C.2      1 ZINC000426567005    0.5600
22     O22    -7.4491    5.2123    0.2561 O.2      1 ZINC000426567005   -0.5100
23     N23    -8.4056    3.4259    1.1659 N.am     1 ZINC000426567005   -0.6700
24     C24    -9.6548    4.0540    1.1928 C.ar     1 ZINC000426567005    0.1400
25     C25   -10.5262    3.8251    2.2498 C.ar     1 ZINC000426567005   -0.1500
26     C26   -11.7590    4.4474    2.2737 C.ar     1 ZINC000426567005   -0.1000
27     C27   -12.1260    5.2975    1.2466 C.ar     1 ZINC000426567005   -0.1300
28     C28   -11.2609    5.5272    0.1925 C.ar     1 ZINC000426567005   -0.1000
29     C29   -10.0244    4.9126    0.1655 C.ar     1 ZINC000426567005   -0.1200
30     C30    -5.9302    2.0329    0.9299 C.ar     1 ZINC000426567005   -0.0600
31     C31    -4.7262    1.3779    0.8016 C.ar     1 ZINC000426567005   -0.1400
32     H32     1.1854    2.9436    0.6002 H        1 ZINC000426567005    0.4300
33     H33     5.5236    0.9233    0.5469 H        1 ZINC000426567005    0.4400
34     H34     3.8316   -2.4899    0.2885 H        1 ZINC000426567005    0.1100
35     H35     4.3136   -2.1934   -2.0538 H        1 ZINC000426567005    0.0800
36     H36     5.5350   -0.9202   -1.7254 H        1 ZINC000426567005    0.0700
37     H37     5.7363   -3.9355   -1.1935 H        1 ZINC000426567005    0.0700
38     H38     6.9228   -2.8713   -2.0117 H        1 ZINC000426567005    0.0700
39     H39     7.0923   -3.5469    0.6700 H        1 ZINC000426567005    0.0700
40     H40     7.7335   -2.0186    0.0035 H        1 ZINC000426567005    0.0700
41     H41     6.1857   -0.8443    1.2071 H        1 ZINC000426567005    0.0600
42     H42     5.5445   -2.3726    1.8737 H        1 ZINC000426567005    0.0700
43     H43     1.7969   -0.7971    0.0471 H        1 ZINC000426567005    0.1700
44     H44    -2.3939    0.4266   -0.0854 H        1 ZINC000426567005    0.4300
45     H45    -2.8962    3.8615   -0.6042 H        1 ZINC000426567005    0.1500
46     H46    -5.0423    5.0370   -0.3873 H        1 ZINC000426567005    0.1400
47     H47    -8.3034    2.5336    1.5323 H        1 ZINC000426567005    0.4100
48     H48   -10.2403    3.1610    3.0521 H        1 ZINC000426567005    0.1300
49     H49   -12.4372    4.2695    3.0951 H        1 ZINC000426567005    0.1300
50     H50   -13.0906    5.7829    1.2676 H        1 ZINC000426567005    0.1200
51     H51   -11.5508    6.1912   -0.6084 H        1 ZINC000426567005    0.1300
52     H52    -9.3490    5.0926   -0.6578 H        1 ZINC000426567005    0.1300
53     H53    -6.7799    1.5229    1.3592 H        1 ZINC000426567005    0.1300
54     H54    -4.6307    0.3546    1.1336 H        1 ZINC000426567005    0.1400
@<TRIPOS>BOND
1     1     2     2
2     2     3     am
3     2     14    1
4     3     4     1
5     3     32    1
6     4     13    1
7     4     5     2
8     5     6     1
9     6     7     1
10    6     33    1
11    7     8     1
12    7     13    2
13    8     12    1
14    8     9     1
15    8     34    1
16    9     10    1
17    9     35    1
18    9     36    1
19    10    11    1
20    10    37    1
21    10    38    1
22    11    12    1
23    11    39    1
24    11    40    1
25    12    41    1
26    12    42    1
27    13    43    1
28    14    15    2
29    14    16    am
30    16    17    1
31    16    44    1
32    17    31    ar
33    17    18    ar
34    18    19    ar
35    18    45    1
36    19    20    ar
37    19    46    1
38    20    21    1
39    20    30    ar
40    21    22    2
41    21    23    am
42    23    24    1
43    23    47    1
44    24    29    ar
45    24    25    ar
46    25    26    ar
47    25    48    1
48    26    27    ar
49    26    49    1
50    27    28    ar
51    27    50    1
52    28    29    ar
53    28    51    1
54    29    52    1
55    30    31    ar
56    30    53    1
57    31    54    1
@<TRIPOS>SUBSTRUCTURE
1   ZINC000426567005 1     RESIDUE    1   A     ZIN   1
@<TRIPOS>MOLECULE
ZINC000428748914
58	61	1	0	0
SMALL
USER_CHARGES
@<TRIPOS>ATOM
1      O1      0.4937    1.5699   -0.4293 O.2      1 ZINC000428748914   -0.5900
2      C2     -0.0074    2.6765   -0.4820 C.2      1 ZINC000428748914    0.7000
3      N3      0.7678    3.7578   -0.6971 N.am     1 ZINC000428748914   -0.7400
4      C4      2.2143    3.5998   -0.8676 C.3      1 ZINC000428748914    0.1900
5      C5      2.8441    4.9503   -1.0925 C.ar     1 ZINC000428748914   -0.2000
6      C6      2.9791    5.4559   -2.3779 C.ar     1 ZINC000428748914   -0.0200
7      C7      3.5632    6.7003   -2.5398 C.ar     1 ZINC000428748914   -0.1900
8      C8      3.9919    7.3968   -1.4174 C.ar     1 ZINC000428748914    0.3300
9      O9      4.5656    8.6177   -1.5627 O.3      1 ZINC000428748914   -0.3000
10     C10     4.9854    9.2833   -0.3699 C.3      1 ZINC000428748914    0.0800
11     C11     6.4865    9.0145   -0.0987 C.3      1 ZINC000428748914   -0.1400
12     C12     6.8954   10.2194    0.7845 C.3      1 ZINC000428748914   -0.1200
13     C13     6.1155   11.4086    0.1867 C.3      1 ZINC000428748914   -0.1200
14     C14     4.9011   10.8134   -0.5473 C.3      1 ZINC000428748914   -0.1200
15     N15     3.8458    6.8814   -0.2079 N.ar     1 ZINC000428748914   -0.5400
16     C16     3.2878    5.7005   -0.0214 C.ar     1 ZINC000428748914    0.1600
17     N17    -1.3388    2.8212   -0.3307 N.am     1 ZINC000428748914   -0.7400
18     C18    -2.1823    1.6452   -0.1029 C.3      1 ZINC000428748914    0.1800
19     C19    -3.6222    2.0929    0.1563 C.3      1 ZINC000428748914   -0.1300
20     C20    -3.9176    2.5749    1.5780 C.3      1 ZINC000428748914    0.1100
21     O21    -3.5335    1.5647    2.5130 O.3      1 ZINC000428748914   -0.5700
22     C22    -4.7367    1.3514   -0.5846 C.3      1 ZINC000428748914   -0.1400
23     C23    -4.3660    2.7791   -0.9911 C.3      1 ZINC000428748914   -0.1000
24     H24    -3.8296    2.9116   -1.9307 H        1 ZINC000428748914    0.1200
25     C25    -5.3343    3.8776   -0.6349 C.ar     1 ZINC000428748914   -0.0700
26     C26    -6.4105    3.6090    0.1902 C.ar     1 ZINC000428748914   -0.0900
27     C27    -7.2991    4.6155    0.5175 C.ar     1 ZINC000428748914   -0.1500
28     C28    -7.1108    5.8935    0.0191 C.ar     1 ZINC000428748914    0.1000
29     F29    -7.9786    6.8784    0.3388 F        1 ZINC000428748914   -0.1400
30     C30    -6.0323    6.1615   -0.8068 C.ar     1 ZINC000428748914   -0.1500
31     C31    -5.1424    5.1544   -1.1289 C.ar     1 ZINC000428748914   -0.0800
32     H32     0.3681    4.6406   -0.7391 H        1 ZINC000428748914    0.4000
33     H33     2.6383    3.1458    0.0281 H        1 ZINC000428748914    0.0800
34     H34     2.4110    2.9594   -1.7274 H        1 ZINC000428748914    0.0800
35     H35     2.6366    4.8912   -3.2324 H        1 ZINC000428748914    0.1400
36     H36     3.6844    7.1239   -3.5259 H        1 ZINC000428748914    0.1400
37     H37     4.3793    8.9636    0.4778 H        1 ZINC000428748914    0.1000
38     H38     6.6197    8.0770    0.4411 H        1 ZINC000428748914    0.0700
39     H39     7.0524    9.0088   -1.0303 H        1 ZINC000428748914    0.0800
40     H40     6.5997   10.0511    1.8200 H        1 ZINC000428748914    0.0700
41     H41     7.9691   10.3948    0.7171 H        1 ZINC000428748914    0.0700
42     H42     5.7814   12.0740    0.9827 H        1 ZINC000428748914    0.0700
43     H43     6.7462   11.9534   -0.5158 H        1 ZINC000428748914    0.0700
44     H44     4.9424   11.0694   -1.6060 H        1 ZINC000428748914    0.0800
45     H45     3.9776   11.1900   -0.1074 H        1 ZINC000428748914    0.0700
46     H46     3.1849    5.3117    0.9809 H        1 ZINC000428748914    0.1600
47     H47    -1.7386    3.7040   -0.3727 H        1 ZINC000428748914    0.3900
48     H48    -2.1544    1.0022   -0.9825 H        1 ZINC000428748914    0.0700
49     H49    -1.8118    1.0944    0.7617 H        1 ZINC000428748914    0.0900
50     H50    -3.3547    3.4869    1.7768 H        1 ZINC000428748914    0.0500
51     H51    -4.9839    2.7769    1.6790 H        1 ZINC000428748914    0.0600
52     H52    -3.6926    1.8027    3.4366 H        1 ZINC000428748914    0.3800
53     H53    -4.4441    0.5447   -1.2567 H        1 ZINC000428748914    0.1100
54     H54    -5.6807    1.2067   -0.0592 H        1 ZINC000428748914    0.1100
55     H55    -6.5571    2.6120    0.5788 H        1 ZINC000428748914    0.1400
56     H56    -8.1401    4.4053    1.1615 H        1 ZINC000428748914    0.1400
57     H57    -5.8847    7.1579   -1.1964 H        1 ZINC000428748914    0.1400
58     H58    -4.3009    5.3633   -1.7728 H        1 ZINC000428748914    0.1300
@<TRIPOS>BOND
1     1     2     2
2     2     3     am
3     2     17    am
4     3     4     1
5     3     32    1
6     4     5     1
7     4     33    1
8     4     34    1
9     5     16    ar
10    5     6     ar
11    6     7     ar
12    6     35    1
13    7     8     ar
14    7     36    1
15    8     9     1
16    8     15    ar
17    9     10    1
18    10    14    1
19    10    11    1
20    10    37    1
21    11    12    1
22    11    38    1
23    11    39    1
24    12    13    1
25    12    40    1
26    12    41    1
27    13    14    1
28    13    42    1
29    13    43    1
30    14    44    1
31    14    45    1
32    15    16    ar
33    16    46    1
34    17    18    1
35    17    47    1
36    18    19    1
37    18    48    1
38    18    49    1
39    19    23    1
40    19    20    1
41    19    22    1
42    20    21    1
43    20    50    1
44    20    51    1
45    21    52    1
46    22    23    1
47    22    53    1
48    22    54    1
49    23    24    1
50    23    25    1
51    25    31    ar
52    25    26    ar
53    26    27    ar
54    26    55    1
55    27    28    ar
56    27    56    1
57    28    29    1
58    28    30    ar
59    30    31    ar
60    30    57    1
61    31    58    1
@<TRIPOS>SUBSTRUCTURE
1   ZINC000428748914 1     RESIDUE    1   A     ZIN   1
@<TRIPOS>MOLECULE
ZINC000151991096
51	53	1	0	0
SMALL
USER_CHARGES
@<TRIPOS>ATOM
1      C1     -0.0187    1.5258    0.0104 C.3      1 ZINC000151991096   -0.1500
2      C2      0.0021   -0.0041    0.0020 C.3      1 ZINC000151991096   -0.1300
3      C3      0.7421   -0.5109    1.2415 C.3      1 ZINC000151991096    0.1400
4      H4      0.2852   -0.0874    2.1360 H        1 ZINC000151991096    0.1000
5      N5      2.1476   -0.1038    1.1716 N.am     1 ZINC000151991096   -0.7200
6      C6      2.5184    1.1162    1.6081 C.2      1 ZINC000151991096    0.5600
7      O7      1.6863    1.8790    2.0598 O.2      1 ZINC000151991096   -0.5300
8      C8      3.9346    1.5263    1.5376 C.ar     1 ZINC000151991096   -0.1700
9      C9      4.8914    0.6533    1.0135 C.ar     1 ZINC000151991096   -0.0500
10     C10     6.2115    1.0398    0.9490 C.ar     1 ZINC000151991096   -0.1600
11     C11     6.5927    2.2965    1.4045 C.ar     1 ZINC000151991096    0.1600
12     O12     7.8946    2.6739    1.3389 O.3      1 ZINC000151991096   -0.3000
13     C13     8.2171    3.9787    1.8243 C.3      1 ZINC000151991096    0.0900
14     C14     9.6968    4.2198    1.6719 C.ar     1 ZINC000151991096   -0.0500
15     C15    10.5034    3.2442    1.1242 C.ar     1 ZINC000151991096   -0.1000
16     C16    11.8624    3.4640    0.9836 C.ar     1 ZINC000151991096   -0.0900
17     C17    12.4217    4.6619    1.3911 C.ar     1 ZINC000151991096   -0.1200
18     C18    11.6266    5.6464    1.9407 C.ar     1 ZINC000151991096   -0.0700
19     C19    10.2538    5.4338    2.0798 C.ar     1 ZINC000151991096   -0.0200
20     C20     9.4224    6.4513    2.6493 C.1      1 ZINC000151991096    0.2400
21     N21     8.7630    7.2584    3.1011 N.1      1 ZINC000151991096   -0.4000
22     C22     5.6439    3.1678    1.9266 C.ar     1 ZINC000151991096   -0.2200
23     C23     4.3210    2.7908    1.9896 C.ar     1 ZINC000151991096   -0.0100
24     C24     0.6554   -2.0374    1.2986 C.3      1 ZINC000151991096    0.0700
25     H25    -0.3889   -2.3471    1.3383 H        1 ZINC000151991096    0.1000
26     C26     1.4038   -2.5582    2.5444 C.3      1 ZINC000151991096   -0.1500
27     C27     2.0938   -3.8397    2.0026 C.3      1 ZINC000151991096   -0.1600
28     C28     2.4058   -3.4125    0.5463 C.3      1 ZINC000151991096    0.0500
29     O29     1.2866   -2.6034    0.1441 O.3      1 ZINC000151991096   -0.3700
30     H30     1.0039    1.9031    0.0027 H        1 ZINC000151991096    0.0500
31     H31    -0.5459    1.8868   -0.8726 H        1 ZINC000151991096    0.0500
32     H32    -0.5289    1.8773    0.9072 H        1 ZINC000151991096    0.0600
33     H33    -1.0205   -0.3814    0.0098 H        1 ZINC000151991096    0.0700
34     H34     0.5123   -0.3556   -0.8948 H        1 ZINC000151991096    0.0700
35     H35     2.8115   -0.7124    0.8112 H        1 ZINC000151991096    0.4000
36     H36     4.5961   -0.3234    0.6597 H        1 ZINC000151991096    0.1300
37     H37     6.9518    0.3655    0.5444 H        1 ZINC000151991096    0.1400
38     H38     7.6665    4.7255    1.2523 H        1 ZINC000151991096    0.0800
39     H39     7.9434    4.0527    2.8768 H        1 ZINC000151991096    0.0800
40     H40    10.0733    2.3065    0.8046 H        1 ZINC000151991096    0.1400
41     H41    12.4893    2.6966    0.5540 H        1 ZINC000151991096    0.1400
42     H42    13.4832    4.8265    1.2792 H        1 ZINC000151991096    0.1400
43     H43    12.0646    6.5810    2.2588 H        1 ZINC000151991096    0.1400
44     H44     5.9441    4.1433    2.2798 H        1 ZINC000151991096    0.1300
45     H45     3.5843    3.4685    2.3951 H        1 ZINC000151991096    0.1400
46     H46     2.1436   -1.8332    2.8838 H        1 ZINC000151991096    0.0800
47     H47     0.7038   -2.8028    3.3434 H        1 ZINC000151991096    0.0900
48     H48     3.0093   -4.0557    2.5533 H        1 ZINC000151991096    0.0800
49     H49     1.4139   -4.6914    2.0250 H        1 ZINC000151991096    0.0800
50     H50     3.3264   -2.8299    0.5119 H        1 ZINC000151991096    0.0600
51     H51     2.4878   -4.2893   -0.0960 H        1 ZINC000151991096    0.0900
@<TRIPOS>BOND
1     1     2     1
2     1     30    1
3     1     31    1
4     1     32    1
5     2     3     1
6     2     33    1
7     2     34    1
8     3     4     1
9     3     5     1
10    3     24    1
11    5     6     am
12    5     35    1
13    6     7     2
14    6     8     1
15    8     23    ar
16    8     9     ar
17    9     10    ar
18    9     36    1
19    10    11    ar
20    10    37    1
21    11    12    1
22    11    22    ar
23    12    13    1
24    13    14    1
25    13    38    1
26    13    39    1
27    14    19    ar
28    14    15    ar
29    15    16    ar
30    15    40    1
31    16    17    ar
32    16    41    1
33    17    18    ar
34    17    42    1
35    18    19    ar
36    18    43    1
37    19    20    1
38    20    21    3
39    22    23    ar
40    22    44    1
41    23    45    1
42    24    25    1
43    24    29    1
44    24    26    1
45    26    27    1
46    26    46    1
47    26    47    1
48    27    28    1
49    27    48    1
50    27    49    1
51    28    29    1
52    28    50    1
53    28    51    1
@<TRIPOS>SUBSTRUCTURE
1   ZINC000151991096 1     RESIDUE    1   A     ZIN   1
@<TRIPOS>MOLECULE
ZINC001109082135
54	57	1	0	0
SMALL
USER_CHARGES
@<TRIPOS>ATOM
1      C1     -1.9107    1.4734    4.8619 C.3      1 ZINC001109082135   -0.1400
2      C2     -1.8900   -0.0564    4.8535 C.3      1 ZINC001109082135   -0.1400
3      C3     -0.5234   -0.5380    4.4392 C.2      1 ZINC001109082135    0.5100
4      O4      0.3481    0.2635    4.1766 O.2      1 ZINC001109082135   -0.5400
5      N5     -0.2697   -1.8593    4.3606 N.am     1 ZINC001109082135   -0.7200
6      C6      1.0588   -2.3275    3.9579 C.3      1 ZINC001109082135    0.1000
7      C7      1.0792   -3.8343    3.9496 C.2      1 ZINC001109082135    0.5100
8      O8      0.0822   -4.4560    4.2505 O.2      1 ZINC001109082135   -0.5300
9      N9      2.2054   -4.4911    3.6078 N.am     1 ZINC001109082135   -0.7100
10     C10     2.2252   -5.9560    3.5998 C.3      1 ZINC001109082135    0.1100
11     H11     1.2723   -6.3495    3.2459 H        1 ZINC001109082135    0.0900
12     C12     3.3902   -6.4805    2.7251 C.3      1 ZINC001109082135   -0.1600
13     C13     4.2711   -7.2794    3.7325 C.3      1 ZINC001109082135    0.0600
14     H14     4.9370   -8.0206    3.2905 H        1 ZINC001109082135    0.1300
15     C15     4.9613   -6.1952    4.6140 C.3      1 ZINC001109082135   -0.1200
16     C16     3.8068   -5.6543    5.4926 C.3      1 ZINC001109082135   -0.1100
17     C17     2.5536   -6.5080    5.0197 C.3      1 ZINC001109082135    0.0400
18     H18     1.7247   -6.5580    5.7258 H        1 ZINC001109082135    0.1200
19     N19     3.2216   -7.8150    4.6712 N.3      1 ZINC001109082135   -0.4800
20     C20     2.2885   -8.7154    3.9809 C.3      1 ZINC001109082135    0.0800
21     C21     2.9041  -10.0864    3.8682 C.2      1 ZINC001109082135    0.2000
22     C22     2.3393  -11.1429    4.5161 C.2      1 ZINC001109082135   -0.2900
23     C23     2.9404  -12.4122    4.3891 C.2      1 ZINC001109082135    0.5200
24     O24     2.4667  -13.3850    4.9523 O.2      1 ZINC001109082135   -0.5400
25     N25     4.0512  -12.5279    3.6303 N.am     1 ZINC001109082135   -0.6300
26     C26     4.5607  -11.4428    3.0148 C.2      1 ZINC001109082135    0.4300
27     C27     5.8011  -11.5890    2.1715 C.3      1 ZINC001109082135   -0.1400
28     C28     5.8242  -10.8737    0.8192 C.3      1 ZINC001109082135   -0.1400
29     C29     6.6738  -10.3474    1.9777 C.3      1 ZINC001109082135   -0.1400
30     N30     4.0008  -10.2680    3.1285 N.2      1 ZINC001109082135   -0.5300
31     H31    -1.6817    1.8454    3.8633 H        1 ZINC001109082135    0.0600
32     H32    -2.8991    1.8217    5.1616 H        1 ZINC001109082135    0.0600
33     H33    -1.1661    1.8430    5.5669 H        1 ZINC001109082135    0.0600
34     H34    -2.1190   -0.4284    5.8522 H        1 ZINC001109082135    0.1000
35     H35    -2.6346   -0.4260    4.1485 H        1 ZINC001109082135    0.1000
36     H36    -0.9668   -2.5003    4.5707 H        1 ZINC001109082135    0.4100
37     H37     1.2878   -1.9555    2.9592 H        1 ZINC001109082135    0.1000
38     H38     1.8034   -1.9579    4.6629 H        1 ZINC001109082135    0.1000
39     H39     3.0027   -3.9939    3.3672 H        1 ZINC001109082135    0.4000
40     H40     3.0151   -7.1363    1.9394 H        1 ZINC001109082135    0.0800
41     H41     3.9529   -5.6506    2.2975 H        1 ZINC001109082135    0.0800
42     H42     5.7382   -6.6425    5.2341 H        1 ZINC001109082135    0.0700
43     H43     5.3748   -5.4012    3.9922 H        1 ZINC001109082135    0.0700
44     H44     4.0115   -5.8333    6.5481 H        1 ZINC001109082135    0.0700
45     H45     3.6480   -4.5921    5.3062 H        1 ZINC001109082135    0.0700
46     H46     1.3595   -8.7798    4.5474 H        1 ZINC001109082135    0.1000
47     H47     2.0800   -8.3277    2.9838 H        1 ZINC001109082135    0.0700
48     H48     1.4501  -11.0113    5.1148 H        1 ZINC001109082135    0.1600
49     H49     4.4822  -13.3910    3.5286 H        1 ZINC001109082135    0.4200
50     H50     6.3053  -12.5529    2.2401 H        1 ZINC001109082135    0.1300
51     H51     6.3437  -11.3671   -0.0023 H        1 ZINC001109082135    0.1100
52     H52     4.9423  -10.2975    0.5395 H        1 ZINC001109082135    0.1100
53     H53     6.3509   -9.4248    2.4601 H        1 ZINC001109082135    0.1100
54     H54     7.7522  -10.4945    1.9183 H        1 ZINC001109082135    0.1100
@<TRIPOS>BOND
1     1     2     1
2     1     31    1
3     1     32    1
4     1     33    1
5     2     3     1
6     2     34    1
7     2     35    1
8     3     4     2
9     3     5     am
10    5     6     1
11    5     36    1
12    6     7     1
13    6     37    1
14    6     38    1
15    7     8     2
16    7     9     am
17    9     10    1
18    9     39    1
19    10    11    1
20    10    17    1
21    10    12    1
22    12    13    1
23    12    40    1
24    12    41    1
25    13    14    1
26    13    19    1
27    13    15    1
28    15    16    1
29    15    42    1
30    15    43    1
31    16    17    1
32    16    44    1
33    16    45    1
34    17    18    1
35    17    19    1
36    19    20    1
37    20    21    1
38    20    46    1
39    20    47    1
40    21    30    1
41    21    22    2
42    22    23    1
43    22    48    1
44    23    24    2
45    23    25    am
46    25    26    1
47    25    49    1
48    26    27    1
49    26    30    2
50    27    29    1
51    27    28    1
52    27    50    1
53    28    29    1
54    28    51    1
55    28    52    1
56    29    53    1
57    29    54    1
@<TRIPOS>SUBSTRUCTURE
1   ZINC001109082135 1     RESIDUE    1   A     ZIN   1
@<TRIPOS>MOLECULE
ZINC000899027326
35	36	1	0	0
SMALL
USER_CHARGES
@<TRIPOS>ATOM
1      C1     -0.0187    1.5258    0.0104 C.3      1 ZINC000899027326   -0.1500
2      C2      0.0021   -0.0041    0.0020 C.3      1 ZINC000899027326    0.1100
3      H3     -1.0134   -0.4002   -0.0029 H        1 ZINC000899027326    0.1400
4      C4      0.7817   -0.5203   -1.1911 C.2      1 ZINC000899027326    0.5300
5      O5      0.5291   -0.3425   -2.3634 O.2      1 ZINC000899027326   -0.4500
6      N6      1.8144   -1.2174   -0.6775 N.am     1 ZINC000899027326   -0.3700
7      N7      2.7877   -1.8655   -1.4492 N.am     1 ZINC000899027326   -0.5000
8      C8      4.0217   -1.3353   -1.5616 C.2      1 ZINC000899027326    0.5200
9      O9      4.2895   -0.2971   -0.9948 O.2      1 ZINC000899027326   -0.4800
10     C10     5.0686   -2.0325   -2.3916 C.3      1 ZINC000899027326    0.0500
11     O11     6.2835   -1.2810   -2.3554 O.3      1 ZINC000899027326   -0.2700
12     C12     7.3366   -1.7760   -3.0582 C.ar     1 ZINC000899027326    0.1400
13     C13     7.2013   -2.9569   -3.7721 C.ar     1 ZINC000899027326   -0.1900
14     C14     8.2729   -3.4587   -4.4860 C.ar     1 ZINC000899027326   -0.0600
15     C15     9.4805   -2.7840   -4.4890 C.ar     1 ZINC000899027326   -0.0600
16     Cl16   10.8246   -3.4166   -5.3873 Cl       1 ZINC000899027326   -0.0500
17     C17     9.6185   -1.6051   -3.7774 C.ar     1 ZINC000899027326   -0.0600
18     C18     8.5476   -1.0968   -3.0668 C.ar     1 ZINC000899027326   -0.0500
19     Cl19    8.7206    0.3821   -2.1741 Cl       1 ZINC000899027326   -0.0300
20     C20     1.7958   -1.2134    0.6603 C.2      1 ZINC000899027326    0.7000
21     O21     2.6249   -1.7749    1.3491 O.2      1 ZINC000899027326   -0.5200
22     N22     0.7535   -0.5186    1.1599 N.am     1 ZINC000899027326   -0.6200
23     C23     0.4358   -0.3139    2.5753 C.3      1 ZINC000899027326    0.1200
24     H24     1.0039    1.9031    0.0027 H        1 ZINC000899027326    0.0700
25     H25    -0.5459    1.8868   -0.8726 H        1 ZINC000899027326    0.0900
26     H26    -0.5289    1.8773    0.9072 H        1 ZINC000899027326    0.0900
27     H27     2.5735   -2.6959   -1.9025 H        1 ZINC000899027326    0.4300
28     H28     5.2462   -3.0299   -1.9895 H        1 ZINC000899027326    0.1100
29     H29     4.7215   -2.1126   -3.4218 H        1 ZINC000899027326    0.1100
30     H30     6.2589   -3.4845   -3.7700 H        1 ZINC000899027326    0.1500
31     H31     8.1676   -4.3787   -5.0417 H        1 ZINC000899027326    0.1500
32     H32    10.5621   -1.0797   -3.7810 H        1 ZINC000899027326    0.1500
33     H33     1.1812   -0.8168    3.1914 H        1 ZINC000899027326    0.0900
34     H34     0.4403    0.7530    2.7981 H        1 ZINC000899027326    0.0700
35     H35    -0.5504   -0.7257    2.7896 H        1 ZINC000899027326    0.0700
@<TRIPOS>BOND
1     1     2     1
2     1     24    1
3     1     25    1
4     1     26    1
5     2     3     1
6     2     22    1
7     2     4     1
8     4     5     2
9     4     6     am
10    6     7     1
11    6     20    am
12    7     8     am
13    7     27    1
14    8     9     2
15    8     10    1
16    10    11    1
17    10    28    1
18    10    29    1
19    11    12    1
20    12    18    ar
21    12    13    ar
22    13    14    ar
23    13    30    1
24    14    15    ar
25    14    31    1
26    15    16    1
27    15    17    ar
28    17    18    ar
29    17    32    1
30    18    19    1
31    20    21    2
32    20    22    am
33    22    23    1
34    23    33    1
35    23    34    1
36    23    35    1
@<TRIPOS>SUBSTRUCTURE
1   ZINC000899027326 1     RESIDUE    1   A     ZIN   1
@<TRIPOS>MOLECULE
ZINC001067316277
47	49	1	0	0
SMALL
USER_CHARGES
@<TRIPOS>ATOM
1      C1     -0.0225    1.8057    0.0120 C.3      1 ZINC001067316277   -0.1400
2      S2      0.0021   -0.0041    0.0020 S.3      1 ZINC001067316277   -0.0400
3      C3      0.8594   -0.2901   -1.5105 C.ar     1 ZINC001067316277    0.1800
4      C4      1.1125   -1.5931   -1.9464 C.ar     1 ZINC001067316277   -0.2400
5      C5      1.7877   -1.7695   -3.1380 C.ar     1 ZINC001067316277    0.1900
6      N6      2.1732   -0.7062   -3.8285 N.ar     1 ZINC001067316277   -0.5600
7      C7      1.9197    0.5188   -3.3914 C.ar     1 ZINC001067316277    0.5100
8      N8      2.3390    1.6033   -4.1420 N.3      1 ZINC001067316277   -0.4600
9      C9      3.1859    2.4994   -3.3444 C.3      1 ZINC001067316277    0.0700
10     C10     3.5100    3.7548   -4.1574 C.3      1 ZINC001067316277   -0.1300
11     C11     4.2332    3.3505   -5.4450 C.3      1 ZINC001067316277    0.1600
12     H12     5.1765    2.8646   -5.1957 H        1 ZINC001067316277    0.0900
13     N13     4.4957    4.5432   -6.2543 N.am     1 ZINC001067316277   -0.7200
14     C14     5.5964    5.2857   -6.0229 C.2      1 ZINC001067316277    0.5900
15     O15     6.3723    4.9654   -5.1418 O.2      1 ZINC001067316277   -0.5300
16     C16     5.8592    6.4798   -6.8331 C.2      1 ZINC001067316277   -0.0600
17     C17     6.9420    7.3246   -6.7121 C.2      1 ZINC001067316277   -0.1000
18     C18     6.7926    8.3249   -7.6777 C.2      1 ZINC001067316277   -0.2100
19     C19     5.6465    8.0792   -8.3566 C.2      1 ZINC001067316277    0.0300
20     N20     5.0727    6.9577   -7.8567 N.pl3    1 ZINC001067316277   -0.5400
21     C21     3.3502    2.3795   -6.2337 C.3      1 ZINC001067316277   -0.0700
22     C22     2.0489    3.0796   -6.6304 C.3      1 ZINC001067316277   -0.1400
23     C23     4.0900    1.9244   -7.4933 C.3      1 ZINC001067316277   -0.1400
24     C24     3.0308    1.1640   -5.3605 C.3      1 ZINC001067316277    0.0800
25     N25     1.2703    0.7312   -2.2570 N.ar     1 ZINC001067316277   -0.5400
26     H26     1.0001    2.1830    0.0042 H        1 ZINC001067316277    0.0900
27     H27    -0.5497    2.1668   -0.8711 H        1 ZINC001067316277    0.0900
28     H28    -0.5327    2.1573    0.9088 H        1 ZINC001067316277    0.1000
29     H29     0.7879   -2.4431   -1.3645 H        1 ZINC001067316277    0.1500
30     H30     1.9997   -2.7635   -3.5032 H        1 ZINC001067316277    0.1700
31     H31     2.6582    2.7827   -2.4337 H        1 ZINC001067316277    0.1000
32     H32     4.1117    1.9869   -3.0830 H        1 ZINC001067316277    0.0500
33     H33     2.5854    4.2752   -4.4073 H        1 ZINC001067316277    0.0800
34     H34     4.1514    4.4126   -3.5709 H        1 ZINC001067316277    0.0800
35     H35     3.8772    4.7985   -6.9566 H        1 ZINC001067316277    0.3900
36     H36     7.7527    7.2315   -6.0047 H        1 ZINC001067316277    0.1500
37     H37     7.4704    9.1476   -7.8512 H        1 ZINC001067316277    0.1500
38     H38     5.2557    8.6773   -9.1666 H        1 ZINC001067316277    0.1700
39     H39     4.2429    6.5611   -8.1651 H        1 ZINC001067316277    0.4100
40     H40     2.2772    3.9473   -7.2494 H        1 ZINC001067316277    0.0500
41     H41     1.4208    2.3880   -7.1918 H        1 ZINC001067316277    0.0600
42     H42     1.5217    3.4024   -5.7327 H        1 ZINC001067316277    0.0700
43     H43     5.0162    1.4245   -7.2100 H        1 ZINC001067316277    0.0600
44     H44     3.4609    1.2333   -8.0543 H        1 ZINC001067316277    0.0600
45     H45     4.3197    2.7913   -8.1129 H        1 ZINC001067316277    0.0600
46     H46     3.9573    0.6578   -5.0897 H        1 ZINC001067316277    0.0600
47     H47     2.3904    0.4773   -5.9142 H        1 ZINC001067316277    0.1000
@<TRIPOS>BOND
1     1     2     1
2     1     26    1
3     1     27    1
4     1     28    1
5     2     3     1
6     3     25    ar
7     3     4     ar
8     4     5     ar
9     4     29    1
10    5     6     ar
11    5     30    1
12    6     7     ar
13    7     8     1
14    7     25    ar
15    8     24    1
16    8     9     1
17    9     10    1
18    9     31    1
19    9     32    1
20    10    11    1
21    10    33    1
22    10    34    1
23    11    12    1
24    11    13    1
25    11    21    1
26    13    14    am
27    13    35    1
28    14    15    2
29    14    16    1
30    16    20    1
31    16    17    2
32    17    18    1
33    17    36    1
34    18    19    2
35    18    37    1
36    19    20    1
37    19    38    1
38    20    39    1
39    21    22    1
40    21    23    1
41    21    24    1
42    22    40    1
43    22    41    1
44    22    42    1
45    23    43    1
46    23    44    1
47    23    45    1
48    24    46    1
49    24    47    1
@<TRIPOS>SUBSTRUCTURE
1   ZINC001067316277 1     RESIDUE    1   A     ZIN   1
@<TRIPOS>MOLECULE
ZINC000302023461
37	40	1	0	0
SMALL
USER_CHARGES
@<TRIPOS>ATOM
1      O1     -1.7540    4.1905    3.7864 O.2      1 ZINC000302023461   -0.1600
2      N2     -1.2481    4.1628    2.6787 N.pl3    1 ZINC000302023461    0.0200
3      O3     -0.2119    4.7670    2.4672 O.2      1 ZINC000302023461   -0.1300
4      C4     -1.8895    3.3898    1.5913 C.ar     1 ZINC000302023461    0.0000
5      C5     -3.0640    2.7046    1.8301 C.ar     1 ZINC000302023461   -0.0600
6      C6     -3.6640    1.9821    0.8146 C.ar     1 ZINC000302023461   -0.0900
7      C7     -3.0904    1.9435   -0.4431 C.ar     1 ZINC000302023461   -0.0800
8      C8     -1.9156    2.6265   -0.6893 C.ar     1 ZINC000302023461   -0.0500
9      C9     -1.3129    3.3576    0.3270 C.ar     1 ZINC000302023461   -0.1100
10     S10     0.1857    4.2310    0.0174 S.3      1 ZINC000302023461    0.1900
11     C11    -0.3531    5.9017   -0.1334 C.2      1 ZINC000302023461    0.2100
12     N12    -1.6030    6.3041   -0.1156 N.2      1 ZINC000302023461   -0.3200
13     N13    -1.5859    7.7004   -0.2643 N.pl3    1 ZINC000302023461   -0.4700
14     C14    -0.2856    8.0575   -0.3649 C.2      1 ZINC000302023461    0.3500
15     C15     0.2280    9.4338   -0.5346 C.ar     1 ZINC000302023461   -0.0400
16     C16    -0.6592   10.5086   -0.5989 C.ar     1 ZINC000302023461   -0.0900
17     C17    -0.1777   11.7908   -0.7590 C.ar     1 ZINC000302023461   -0.1100
18     C18     1.1886   12.0180   -0.8569 C.ar     1 ZINC000302023461    0.0800
19     O19     1.6409   13.2906   -1.0231 O.3      1 ZINC000302023461   -0.3000
20     C20     3.0257   13.5236   -0.7446 C.3      1 ZINC000302023461    0.0200
21     C21     3.8449   12.4139   -1.4172 C.3      1 ZINC000302023461    0.0200
22     O22     3.4217   11.1562   -0.8798 O.3      1 ZINC000302023461   -0.3000
23     C23     2.0790   10.9501   -0.7902 C.ar     1 ZINC000302023461    0.0500
24     C24     1.6017    9.6618   -0.6252 C.ar     1 ZINC000302023461   -0.0500
25     N25     0.4437    6.9626   -0.2784 N.2      1 ZINC000302023461   -0.5000
26     H26    -3.5147    2.7326    2.8112 H        1 ZINC000302023461    0.1600
27     H27    -4.5824    1.4465    1.0044 H        1 ZINC000302023461    0.1500
28     H28    -3.5616    1.3784   -1.2337 H        1 ZINC000302023461    0.1500
29     H29    -1.4678    2.5954   -1.6716 H        1 ZINC000302023461    0.1600
30     H30    -2.3546    8.2915   -0.2900 H        1 ZINC000302023461    0.4400
31     H31    -1.7228   10.3364   -0.5237 H        1 ZINC000302023461    0.1300
32     H32    -0.8661   12.6216   -0.8087 H        1 ZINC000302023461    0.1500
33     H33     3.3228   14.4933   -1.1439 H        1 ZINC000302023461    0.1300
34     H34     3.1926   13.5023    0.3324 H        1 ZINC000302023461    0.0800
35     H35     3.6725   12.4305   -2.4934 H        1 ZINC000302023461    0.0800
36     H36     4.9049   12.5635   -1.2118 H        1 ZINC000302023461    0.1300
37     H37     2.2918    8.8328   -0.5708 H        1 ZINC000302023461    0.1600
@<TRIPOS>BOND
1     1     2     2
2     2     3     2
3     2     4     1
4     4     9     ar
5     4     5     ar
6     5     6     ar
7     5     26    1
8     6     7     ar
9     6     27    1
10    7     8     ar
11    7     28    1
12    8     9     ar
13    8     29    1
14    9     10    1
15    10    11    1
16    11    25    1
17    11    12    2
18    12    13    1
19    13    14    1
20    13    30    1
21    14    15    1
22    14    25    2
23    15    24    ar
24    15    16    ar
25    16    17    ar
26    16    31    1
27    17    18    ar
28    17    32    1
29    18    23    ar
30    18    19    1
31    19    20    1
32    20    21    1
33    20    33    1
34    20    34    1
35    21    22    1
36    21    35    1
37    21    36    1
38    22    23    1
39    23    24    ar
40    24    37    1
@<TRIPOS>SUBSTRUCTURE
1   ZINC000302023461 1     RESIDUE    1   A     ZIN   1
@<TRIPOS>MOLECULE
ZINC000442864105
47	50	1	0	0
SMALL
USER_CHARGES
@<TRIPOS>ATOM
1      C1     -0.0087    1.4597    0.0098 C.3      1 ZINC000442864105    0.0800
2      N2      0.0232   -0.0050    0.0019 N.pl3    1 ZINC000442864105   -0.4900
3      C3      0.0412   -0.7859   -1.1236 C.2      1 ZINC000442864105    0.0300
4      C4      0.0691   -2.0827   -0.7800 C.2      1 ZINC000442864105   -0.1900
5      C5      0.0689   -2.1384    0.6847 C.ar     1 ZINC000442864105   -0.1600
6      C6      0.0908   -3.1801    1.6142 C.ar     1 ZINC000442864105   -0.0200
7      C7      0.0834   -2.8994    2.9506 C.ar     1 ZINC000442864105   -0.2100
8      C8      0.0542   -1.5784    3.3950 C.ar     1 ZINC000442864105    0.2400
9      N9      0.0470   -1.3079    4.7665 N.pl3    1 ZINC000442864105   -0.7400
10     C10     0.0701   -2.4106    5.7307 C.3      1 ZINC000442864105    0.1100
11     C11     0.0567   -1.8538    7.1310 C.2      1 ZINC000442864105    0.5100
12     O12     0.0304   -0.6539    7.3064 O.2      1 ZINC000442864105   -0.5100
13     N13     0.0739   -2.6891    8.1886 N.am     1 ZINC000442864105   -0.6600
14     C14     0.1774   -2.1738    9.4859 C.ar     1 ZINC000442864105    0.1600
15     C15     0.7667   -0.9361    9.6978 C.ar     1 ZINC000442864105   -0.0700
16     C16     0.8678   -0.4293   10.9796 C.ar     1 ZINC000442864105   -0.1600
17     C17     1.5083    0.9156   11.2074 C.3      1 ZINC000442864105    0.5100
18     F18     0.5315    1.9148   11.1401 F        1 ZINC000442864105   -0.1700
19     F19     2.1113    0.9371   12.4696 F        1 ZINC000442864105   -0.1700
20     F20     2.4769    1.1434   10.2239 F        1 ZINC000442864105   -0.1700
21     C21     0.3825   -1.1526   12.0537 C.ar     1 ZINC000442864105   -0.0600
22     C22    -0.2057   -2.3869   11.8519 C.ar     1 ZINC000442864105   -0.1100
23     C23    -0.3167   -2.9007   10.5687 C.ar     1 ZINC000442864105    0.1500
24     N24    -0.9132   -4.1530   10.3616 N.pl3    1 ZINC000442864105   -0.3300
25     C25    -1.5103   -4.9264   11.2888 C.2      1 ZINC000442864105    0.2800
26     N26    -1.9384   -6.0120   10.6964 N.2      1 ZINC000442864105   -0.5300
27     C27    -1.6357   -5.9688    9.3995 C.2      1 ZINC000442864105    0.2300
28     N28    -1.0125   -4.8477    9.1450 N.2      1 ZINC000442864105   -0.3400
29     C29     0.0328   -0.5325    2.4885 C.ar     1 ZINC000442864105   -0.2100
30     C30     0.0454   -0.8021    1.1246 C.ar     1 ZINC000442864105    0.1500
31     H31     1.0108    1.8453    0.0073 H        1 ZINC000442864105    0.0700
32     H32    -0.5342    1.8165   -0.8759 H        1 ZINC000442864105    0.0800
33     H33    -0.5263    1.8070    0.9040 H        1 ZINC000442864105    0.0800
34     H34     0.0341   -0.4131   -2.1372 H        1 ZINC000442864105    0.1700
35     H35     0.0877   -2.9257   -1.4549 H        1 ZINC000442864105    0.1400
36     H36     0.1130   -4.2059    1.2769 H        1 ZINC000442864105    0.1200
37     H37     0.0999   -3.7063    3.6682 H        1 ZINC000442864105    0.1200
38     H38     0.0268   -0.3901    5.0797 H        1 ZINC000442864105    0.4100
39     H39    -0.8062   -3.0415    5.5822 H        1 ZINC000442864105    0.1000
40     H40     0.9733   -3.0028    5.5839 H        1 ZINC000442864105    0.1000
41     H41     0.0145   -3.6474    8.0507 H        1 ZINC000442864105    0.4300
42     H42     1.1467   -0.3686    8.8612 H        1 ZINC000442864105    0.1700
43     H43     0.4637   -0.7519   13.0533 H        1 ZINC000442864105    0.1500
44     H44    -0.5833   -2.9492   12.6931 H        1 ZINC000442864105    0.1500
45     H45    -1.6165   -4.6920   12.3377 H        1 ZINC000442864105    0.2300
46     H46    -1.8710   -6.7341    8.6747 H        1 ZINC000442864105    0.2300
47     H47     0.0103    0.4887    2.8392 H        1 ZINC000442864105    0.1200
@<TRIPOS>BOND
1     1     2     1
2     1     31    1
3     1     32    1
4     1     33    1
5     2     30    1
6     2     3     1
7     3     4     2
8     3     34    1
9     4     5     1
10    4     35    1
11    5     30    ar
12    5     6     ar
13    6     7     ar
14    6     36    1
15    7     8     ar
16    7     37    1
17    8     9     1
18    8     29    ar
19    9     10    1
20    9     38    1
21    10    11    1
22    10    39    1
23    10    40    1
24    11    12    2
25    11    13    am
26    13    14    1
27    13    41    1
28    14    23    ar
29    14    15    ar
30    15    16    ar
31    15    42    1
32    16    17    1
33    16    21    ar
34    17    18    1
35    17    19    1
36    17    20    1
37    21    22    ar
38    21    43    1
39    22    23    ar
40    22    44    1
41    23    24    1
42    24    28    1
43    24    25    1
44    25    26    2
45    25    45    1
46    26    27    1
47    27    28    2
48    27    46    1
49    29    30    ar
50    29    47    1
@<TRIPOS>SUBSTRUCTURE
1   ZINC000442864105 1     RESIDUE    1   A     ZIN   1
@<TRIPOS>MOLECULE
ZINC000429196987
53	55	1	0	0
SMALL
USER_CHARGES
@<TRIPOS>ATOM
1      C1     -0.0178    1.4608    0.0101 C.3      1 ZINC000429196987    0.0800
2      N2      0.0021   -0.0041    0.0020 N.am     1 ZINC000429196987   -0.6300
3      C3      0.0241   -0.7433    1.2666 C.3      1 ZINC000429196987    0.1600
4      C4     -1.3889   -1.0161    1.7137 C.ar     1 ZINC000429196987   -0.0600
5      C5     -2.0473   -0.1051    2.5184 C.ar     1 ZINC000429196987   -0.1300
6      C6     -3.3435   -0.3554    2.9285 C.ar     1 ZINC000429196987   -0.0300
7      C7     -3.9814   -1.5164    2.5336 C.ar     1 ZINC000429196987   -0.6600
8      S8     -5.6334   -1.8356    3.0568 S.o2     1 ZINC000429196987    2.5000
9      C9     -6.6687   -1.0964    1.7636 C.3      1 ZINC000429196987   -0.6500
10     O10    -5.7411   -3.2523    3.0326 O.2      1 ZINC000429196987   -0.9400
11     O11    -5.7619   -1.1118    4.2729 O.2      1 ZINC000429196987   -0.9400
12     C12    -3.3235   -2.4267    1.7278 C.ar     1 ZINC000429196987   -0.0300
13     C13    -2.0287   -2.1747    1.3145 C.ar     1 ZINC000429196987   -0.1100
14     C14     0.0001   -0.6716   -1.1688 C.2      1 ZINC000429196987    0.7100
15     O15     0.0166   -1.8873   -1.1755 O.2      1 ZINC000429196987   -0.5800
16     N16    -0.0202    0.0085   -2.3322 N.am     1 ZINC000429196987   -0.7400
17     C17    -0.0224   -0.7171   -3.6049 C.3      1 ZINC000429196987    0.1600
18     C18    -1.4594   -1.0925   -3.9775 C.3      1 ZINC000429196987   -0.1300
19     C19    -1.4616   -1.7962   -5.3365 C.3      1 ZINC000429196987    0.0700
20     N20    -0.8909   -0.9028   -6.3526 N.3      1 ZINC000429196987   -0.4700
21     C21    -0.9975   -1.4597   -7.6223 C.ar     1 ZINC000429196987    0.2500
22     C22    -0.5087   -0.7718   -8.7323 C.ar     1 ZINC000429196987   -0.1300
23     C23    -0.6394   -1.3701   -9.9756 C.ar     1 ZINC000429196987   -0.1000
24     C24    -1.2480   -2.6157  -10.0395 C.ar     1 ZINC000429196987    0.0200
25     N25    -1.6818   -3.1949   -8.9377 N.ar     1 ZINC000429196987   -0.2200
26     N26    -1.5592   -2.6492   -7.7824 N.ar     1 ZINC000429196987   -0.2800
27     C27     0.5041   -0.5666   -6.0409 C.3      1 ZINC000429196987    0.0600
28     C28     0.5651    0.1738   -4.7029 C.3      1 ZINC000429196987   -0.1200
29     H29     1.0048    1.8381    0.0023 H        1 ZINC000429196987    0.0600
30     H30    -0.5450    1.8219   -0.8730 H        1 ZINC000429196987    0.0700
31     H31    -0.5280    1.8123    0.9069 H        1 ZINC000429196987    0.0800
32     H32     0.5496   -1.6879    1.1262 H        1 ZINC000429196987    0.1000
33     H33     0.5371   -0.1514    2.0246 H        1 ZINC000429196987    0.0900
34     H34    -1.5489    0.8020    2.8269 H        1 ZINC000429196987    0.1300
35     H35    -3.8577    0.3560    3.5577 H        1 ZINC000429196987    0.1400
36     H36    -6.4466   -1.5683    0.8064 H        1 ZINC000429196987    0.1300
37     H37    -7.7198   -1.2485    2.0085 H        1 ZINC000429196987    0.1300
38     H38    -6.4616   -0.0282    1.6988 H        1 ZINC000429196987    0.1300
39     H39    -3.8220   -3.3337    1.4189 H        1 ZINC000429196987    0.1400
40     H40    -1.5147   -2.8859    0.6850 H        1 ZINC000429196987    0.1400
41     H41    -0.0334    0.9784   -2.3269 H        1 ZINC000429196987    0.4000
42     H42     0.5783   -1.6217   -3.5095 H        1 ZINC000429196987    0.0900
43     H43    -1.8686   -1.7616   -3.2205 H        1 ZINC000429196987    0.0800
44     H44    -2.0682   -0.1902   -4.0339 H        1 ZINC000429196987    0.0700
45     H45    -0.8639   -2.7056   -5.2755 H        1 ZINC000429196987    0.0600
46     H46    -2.4849   -2.0520   -5.6113 H        1 ZINC000429196987    0.0900
47     H47    -0.0433    0.1970   -8.6266 H        1 ZINC000429196987    0.1500
48     H48    -0.2786   -0.8813  -10.8685 H        1 ZINC000429196987    0.1500
49     H49    -1.3665   -3.1105  -10.9922 H        1 ZINC000429196987    0.1700
50     H50     1.0926   -1.4818   -5.9767 H        1 ZINC000429196987    0.0500
51     H51     0.9086    0.0707   -6.8273 H        1 ZINC000429196987    0.0900
52     H52    -0.0119    1.0961   -4.7707 H        1 ZINC000429196987    0.0800
53     H53     1.6022    0.4095   -4.4643 H        1 ZINC000429196987    0.0800
@<TRIPOS>BOND
1     1     2     1
2     1     29    1
3     1     30    1
4     1     31    1
5     2     3     1
6     2     14    am
7     3     4     1
8     3     32    1
9     3     33    1
10    4     13    ar
11    4     5     ar
12    5     6     ar
13    5     34    1
14    6     7     ar
15    6     35    1
16    7     8     1
17    7     12    ar
18    8     9     1
19    8     10    2
20    8     11    2
21    9     36    1
22    9     37    1
23    9     38    1
24    12    13    ar
25    12    39    1
26    13    40    1
27    14    15    2
28    14    16    am
29    16    17    1
30    16    41    1
31    17    28    1
32    17    18    1
33    17    42    1
34    18    19    1
35    18    43    1
36    18    44    1
37    19    20    1
38    19    45    1
39    19    46    1
40    20    21    1
41    20    27    1
42    21    26    ar
43    21    22    ar
44    22    23    ar
45    22    47    1
46    23    24    ar
47    23    48    1
48    24    25    ar
49    24    49    1
50    25    26    ar
51    27    28    1
52    27    50    1
53    27    51    1
54    28    52    1
55    28    53    1
@<TRIPOS>SUBSTRUCTURE
1   ZINC000429196987 1     RESIDUE    1   A     ZIN   1
@<TRIPOS>MOLECULE
ZINC000770850676
58	60	1	0	0
SMALL
USER_CHARGES
@<TRIPOS>ATOM
1      O1      0.0021   -0.0041    0.0020 O.2      1 ZINC000770850676   -0.5300
2      C2     -0.0144    1.2086    0.0087 C.2      1 ZINC000770850676    0.5100
3      N3      1.1435    1.8983    0.0013 N.am     1 ZINC000770850676   -0.7000
4      C4      2.4220    1.1832   -0.0147 C.3      1 ZINC000770850676    0.1600
5      H5      2.3225    0.2743   -0.6081 H        1 ZINC000770850676    0.1000
6      C6      2.8194    0.8168    1.4166 C.3      1 ZINC000770850676    0.0600
7      O7      3.0633    2.0103    2.1636 O.3      1 ZINC000770850676   -0.5700
8      C8      3.4995    2.0784   -0.6299 C.3      1 ZINC000770850676   -0.1500
9      C9      3.1651    2.3428   -2.0993 C.3      1 ZINC000770850676    0.1500
10     H10     3.0396    1.3934   -2.6198 H        1 ZINC000770850676    0.1100
11     O11     1.9539    3.0963   -2.1841 O.3      1 ZINC000770850676   -0.5400
12     C12     4.2866    3.1212   -2.7375 C.ar     1 ZINC000770850676   -0.1200
13     C13     4.3783    4.4868   -2.5430 C.ar     1 ZINC000770850676   -0.1100
14     C14     5.4070    5.2008   -3.1284 C.ar     1 ZINC000770850676   -0.1200
15     C15     6.3444    4.5493   -3.9079 C.ar     1 ZINC000770850676   -0.1200
16     C16     6.2533    3.1836   -4.1017 C.ar     1 ZINC000770850676   -0.1200
17     C17     5.2270    2.4689   -3.5128 C.ar     1 ZINC000770850676   -0.1100
18     C18    -1.3296    1.9443    0.0189 C.3      1 ZINC000770850676    0.1400
19     H19    -1.2767    2.8071   -0.6451 H        1 ZINC000770850676    0.1000
20     C20    -1.6616    2.4058    1.4536 C.3      1 ZINC000770850676   -0.1200
21     C21    -3.1953    2.1881    1.5425 C.3      1 ZINC000770850676   -0.1300
22     C22    -3.3771    0.9057    0.6927 C.3      1 ZINC000770850676    0.1000
23     N23    -2.4089    1.0450   -0.4146 N.am     1 ZINC000770850676   -0.5900
24     C24    -2.5007    0.4459   -1.6184 C.2      1 ZINC000770850676    0.6700
25     O25    -1.6423    0.6338   -2.4576 O.2      1 ZINC000770850676   -0.5600
26     O26    -3.5436   -0.3608   -1.8910 O.3      1 ZINC000770850676   -0.3600
27     C27    -3.5773   -0.9724   -3.2075 C.3      1 ZINC000770850676    0.1300
28     C28    -4.8073   -1.8345   -3.3295 C.ar     1 ZINC000770850676   -0.1000
29     C29    -4.7576   -3.1658   -2.9606 C.ar     1 ZINC000770850676   -0.0900
30     C30    -5.8859   -3.9566   -3.0725 C.ar     1 ZINC000770850676   -0.1200
31     C31    -7.0640   -3.4160   -3.5529 C.ar     1 ZINC000770850676   -0.1100
32     C32    -7.1139   -2.0845   -3.9210 C.ar     1 ZINC000770850676   -0.1200
33     C33    -5.9868   -1.2926   -3.8050 C.ar     1 ZINC000770850676   -0.0900
34     H34     1.1304    2.8682    0.0067 H        1 ZINC000770850676    0.4000
35     H35     2.0122    0.2535    1.8849 H        1 ZINC000770850676    0.0500
36     H36     3.7238    0.2085    1.3982 H        1 ZINC000770850676    0.0500
37     H37     3.3205    1.8536    3.0825 H        1 ZINC000770850676    0.3800
38     H38     3.5375    3.0246   -0.0900 H        1 ZINC000770850676    0.0800
39     H39     4.4673    1.5818   -0.5611 H        1 ZINC000770850676    0.0900
40     H40     1.9931    3.9551   -1.7414 H        1 ZINC000770850676    0.3700
41     H41     3.6459    4.9958   -1.9339 H        1 ZINC000770850676    0.1200
42     H42     5.4782    6.2678   -2.9770 H        1 ZINC000770850676    0.1200
43     H43     7.1477    5.1072   -4.3659 H        1 ZINC000770850676    0.1200
44     H44     6.9854    2.6746   -4.7110 H        1 ZINC000770850676    0.1200
45     H45     5.1558    1.4019   -3.6642 H        1 ZINC000770850676    0.1200
46     H46    -1.1415    1.7896    2.1870 H        1 ZINC000770850676    0.0800
47     H47    -1.4132    3.4587    1.5873 H        1 ZINC000770850676    0.1000
48     H48    -3.5071    2.0210    2.5735 H        1 ZINC000770850676    0.0900
49     H49    -3.7351    3.0273    1.1038 H        1 ZINC000770850676    0.0800
50     H50    -3.1502    0.0210    1.2876 H        1 ZINC000770850676    0.0700
51     H51    -4.3931    0.8506    0.3017 H        1 ZINC000770850676    0.0900
52     H52    -3.6026   -0.1933   -3.9695 H        1 ZINC000770850676    0.0800
53     H53    -2.6877   -1.5869   -3.3456 H        1 ZINC000770850676    0.0800
54     H54    -3.8372   -3.5881   -2.5852 H        1 ZINC000770850676    0.1200
55     H55    -5.8469   -4.9969   -2.7849 H        1 ZINC000770850676    0.1300
56     H56    -7.9453   -4.0341   -3.6410 H        1 ZINC000770850676    0.1300
57     H57    -8.0342   -1.6623   -4.2967 H        1 ZINC000770850676    0.1300
58     H58    -6.0258   -0.2524   -4.0926 H        1 ZINC000770850676    0.1200
@<TRIPOS>BOND
1     1     2     2
2     2     3     am
3     2     18    1
4     3     4     1
5     3     34    1
6     4     5     1
7     4     6     1
8     4     8     1
9     6     7     1
10    6     35    1
11    6     36    1
12    7     37    1
13    8     9     1
14    8     38    1
15    8     39    1
16    9     10    1
17    9     11    1
18    9     12    1
19    11    40    1
20    12    17    ar
21    12    13    ar
22    13    14    ar
23    13    41    1
24    14    15    ar
25    14    42    1
26    15    16    ar
27    15    43    1
28    16    17    ar
29    16    44    1
30    17    45    1
31    18    19    1
32    18    23    1
33    18    20    1
34    20    21    1
35    20    46    1
36    20    47    1
37    21    22    1
38    21    48    1
39    21    49    1
40    22    23    1
41    22    50    1
42    22    51    1
43    23    24    am
44    24    25    2
45    24    26    1
46    26    27    1
47    27    28    1
48    27    52    1
49    27    53    1
50    28    33    ar
51    28    29    ar
52    29    30    ar
53    29    54    1
54    30    31    ar
55    30    55    1
56    31    32    ar
57    31    56    1
58    32    33    ar
59    32    57    1
60    33    58    1
@<TRIPOS>SUBSTRUCTURE
1   ZINC000770850676 1     RESIDUE    1   A     ZIN   1
@<TRIPOS>MOLECULE
ZINC000291574087
43	44	1	0	0
SMALL
USER_CHARGES
@<TRIPOS>ATOM
1      C1      0.0116    1.4452   -0.0055 C.3      1 ZINC000291574087    0.0200
2      O2      0.0227    0.0162   -0.0062 O.3      1 ZINC000291574087   -0.3700
3      C3     -1.2782   -0.5751    0.0095 C.3      1 ZINC000291574087    0.1400
4      C4     -1.1456   -2.0993    0.0073 C.3      1 ZINC000291574087   -0.1500
5      C5     -2.0562   -0.1290   -1.2301 C.3      1 ZINC000291574087    0.0900
6      N6     -1.4050   -0.6569   -2.4315 N.am     1 ZINC000291574087   -0.6900
7      C7     -1.9184   -0.3901   -3.6488 C.2      1 ZINC000291574087    0.5100
8      O8     -2.9201    0.2875   -3.7496 O.2      1 ZINC000291574087   -0.5100
9      C9     -1.2545   -0.9283   -4.8735 C.2      1 ZINC000291574087    0.5100
10     O10    -0.2526   -1.6061   -4.7727 O.2      1 ZINC000291574087   -0.4900
11     N11    -1.7680   -0.6615   -6.0907 N.am     1 ZINC000291574087   -0.6400
12     C12    -1.0847   -1.0663   -7.2419 C.ar     1 ZINC000291574087    0.1300
13     C13     0.2896   -1.2595   -7.2034 C.ar     1 ZINC000291574087   -0.1000
14     C14     0.9621   -1.6599   -8.3419 C.ar     1 ZINC000291574087   -0.0400
15     C15     2.4538   -1.8695   -8.2999 C.3      1 ZINC000291574087   -0.1300
16     C16     0.2683   -1.8690   -9.5203 C.ar     1 ZINC000291574087   -0.0900
17     Br17    1.1939   -2.4182  -11.0752 Br       1 ZINC000291574087   -0.0300
18     C18    -1.1017   -1.6778   -9.5637 C.ar     1 ZINC000291574087   -0.1000
19     C19    -1.7816   -1.2819   -8.4269 C.ar     1 ZINC000291574087    0.0700
20     F20    -3.1189   -1.0951   -8.4690 F        1 ZINC000291574087   -0.1300
21     C21    -2.0255   -0.1300    1.2682 C.3      1 ZINC000291574087   -0.1900
22     C22    -2.6557   -1.2195    2.1380 C.3      1 ZINC000291574087   -0.1700
23     C23    -1.4042   -0.4837    2.6209 C.3      1 ZINC000291574087   -0.1600
24     H24     1.0364    1.8165   -0.0180 H        1 ZINC000291574087    0.0900
25     H25    -0.5159    1.8049   -0.8890 H        1 ZINC000291574087    0.0400
26     H26    -0.4940    1.8042    0.8909 H        1 ZINC000291574087    0.0500
27     H27    -0.5913   -2.4171    0.8904 H        1 ZINC000291574087    0.0700
28     H28    -2.1378   -2.5503    0.0193 H        1 ZINC000291574087    0.0800
29     H29    -0.6132   -2.4164   -0.8894 H        1 ZINC000291574087    0.0700
30     H30    -3.0769   -0.5073   -1.1741 H        1 ZINC000291574087    0.0900
31     H31    -2.0742    0.9599   -1.2754 H        1 ZINC000291574087    0.0800
32     H32    -0.6043   -1.1985   -2.3509 H        1 ZINC000291574087    0.4200
33     H33    -2.6114   -0.1888   -6.1684 H        1 ZINC000291574087    0.4300
34     H34     0.8326   -1.0966   -6.2842 H        1 ZINC000291574087    0.1600
35     H35     2.6679   -2.9036   -8.0299 H        1 ZINC000291574087    0.0800
36     H36     2.8787   -1.6546   -9.2804 H        1 ZINC000291574087    0.0800
37     H37     2.8938   -1.2020   -7.5590 H        1 ZINC000291574087    0.0800
38     H38    -1.6405   -1.8415  -10.4853 H        1 ZINC000291574087    0.1500
39     H39    -2.5537    0.8203    1.1900 H        1 ZINC000291574087    0.1100
40     H40    -3.5989   -0.9863    2.6322 H        1 ZINC000291574087    0.1000
41     H41    -2.5380   -2.2534    1.8135 H        1 ZINC000291574087    0.1000
42     H42    -0.4631   -1.0335    2.6141 H        1 ZINC000291574087    0.1000
43     H43    -1.5240    0.2337    3.4327 H        1 ZINC000291574087    0.1000
@<TRIPOS>BOND
1     1     2     1
2     1     24    1
3     1     25    1
4     1     26    1
5     2     3     1
6     3     4     1
7     3     5     1
8     3     21    1
9     4     27    1
10    4     28    1
11    4     29    1
12    5     6     1
13    5     30    1
14    5     31    1
15    6     7     am
16    6     32    1
17    7     8     2
18    7     9     1
19    9     10    2
20    9     11    am
21    11    12    1
22    11    33    1
23    12    19    ar
24    12    13    ar
25    13    14    ar
26    13    34    1
27    14    15    1
28    14    16    ar
29    15    35    1
30    15    36    1
31    15    37    1
32    16    17    1
33    16    18    ar
34    18    19    ar
35    18    38    1
36    19    20    1
37    21    23    1
38    21    22    1
39    21    39    1
40    22    23    1
41    22    40    1
42    22    41    1
43    23    42    1
44    23    43    1
@<TRIPOS>SUBSTRUCTURE
1   ZINC000291574087 1     RESIDUE    1   A     ZIN   1
@<TRIPOS>MOLECULE
ZINC000821442454
45	47	1	0	0
SMALL
USER_CHARGES
@<TRIPOS>ATOM
1      C1     -0.0039    1.5077    0.0403 C.3      1 ZINC000821442454   -0.1500
2      C2      0.0092   -0.0222    0.0265 C.3      1 ZINC000821442454   -0.6300
3      S3      0.8634   -0.6062   -1.4634 S.o2     1 ZINC000821442454    2.6000
4      O4      0.1017   -0.3062   -2.6248 O.2      1 ZINC000821442454   -0.9500
5      O5      2.2492   -0.2989   -1.3964 O.2      1 ZINC000821442454   -0.9500
6      N6      0.8055   -2.2575   -1.3524 N.am     1 ZINC000821442454   -1.0000
7      C7      1.8737   -2.9997   -0.6691 C.3      1 ZINC000821442454    0.1100
8      C8      2.4096   -4.0772   -1.6171 C.3      1 ZINC000821442454   -0.1300
9      C9      1.2485   -4.9490   -2.1005 C.3      1 ZINC000821442454   -0.1100
10     C10     0.2453   -4.0855   -2.8686 C.3      1 ZINC000821442454   -0.1200
11     H11     0.7453   -3.6108   -3.7129 H        1 ZINC000821442454    0.1100
12     C12    -0.8810   -4.9507   -3.3726 C.2      1 ZINC000821442454    0.5300
13     O13    -2.0206   -4.7273   -3.0227 O.2      1 ZINC000821442454   -0.5100
14     N14    -0.6219   -5.9727   -4.2121 N.am     1 ZINC000821442454   -0.6700
15     C15    -1.6477   -6.8459   -4.5885 C.ar     1 ZINC000821442454    0.1800
16     C16    -2.7533   -7.0135   -3.7644 C.ar     1 ZINC000821442454   -0.1200
17     C17    -3.7663   -7.8735   -4.1337 C.ar     1 ZINC000821442454   -0.0500
18     C18    -3.6807   -8.5750   -5.3345 C.ar     1 ZINC000821442454   -0.0300
19     C19    -4.7701   -9.5006   -5.7336 C.2      1 ZINC000821442454    0.2200
20     N20    -4.8217  -10.2293   -6.8310 N.2      1 ZINC000821442454   -0.2900
21     N21    -5.9241  -10.8965   -6.8098 N.pl3    1 ZINC000821442454   -0.2200
22     N22    -6.5723  -10.6139   -5.7341 N.2      1 ZINC000821442454   -0.0400
23     N23    -5.8904   -9.7628   -5.0455 N.2      1 ZINC000821442454   -0.2700
24     C24    -2.5709   -8.4061   -6.1607 C.ar     1 ZINC000821442454   -0.0500
25     C25    -1.5622   -7.5409   -5.7903 C.ar     1 ZINC000821442454   -0.0800
26     Cl26   -0.1794   -7.3296   -6.8184 Cl       1 ZINC000821442454   -0.0500
27     C27    -0.3180   -3.0077   -1.9299 C.3      1 ZINC000821442454    0.1400
28     H28     1.0206    1.8798    0.0394 H        1 ZINC000821442454    0.0700
29     H29    -0.5244    1.8745   -0.8444 H        1 ZINC000821442454    0.0700
30     H30    -0.5172    1.8586    0.9355 H        1 ZINC000821442454    0.0800
31     H31     0.5297   -0.3890    0.9112 H        1 ZINC000821442454    0.1300
32     H32    -1.0154   -0.3943    0.0273 H        1 ZINC000821442454    0.1300
33     H33     2.6791   -2.3163   -0.4000 H        1 ZINC000821442454    0.1000
34     H34     1.4748   -3.4696    0.2299 H        1 ZINC000821442454    0.0700
35     H35     2.8892   -3.6026   -2.4732 H        1 ZINC000821442454    0.0700
36     H36     3.1352   -4.6970   -1.0903 H        1 ZINC000821442454    0.0800
37     H37     1.6304   -5.7318   -2.7559 H        1 ZINC000821442454    0.0700
38     H38     0.7539   -5.4037   -1.2422 H        1 ZINC000821442454    0.0800
39     H39     0.2760   -6.1027   -4.5553 H        1 ZINC000821442454    0.4200
40     H40    -2.8195   -6.4700   -2.8334 H        1 ZINC000821442454    0.1600
41     H41    -4.6253   -8.0035   -3.4922 H        1 ZINC000821442454    0.1500
42     H42    -6.2192  -11.5145   -7.4967 H        1 ZINC000821442454    0.4800
43     H43    -2.5026   -8.9489   -7.0918 H        1 ZINC000821442454    0.1500
44     H44    -0.8955   -3.4805   -1.1355 H        1 ZINC000821442454    0.0800
45     H45    -0.9571   -2.3290   -2.4947 H        1 ZINC000821442454    0.1000
@<TRIPOS>BOND
1     1     2     1
2     1     28    1
3     1     29    1
4     1     30    1
5     2     3     1
6     2     31    1
7     2     32    1
8     3     4     2
9     3     5     2
10    3     6     am
11    6     27    1
12    6     7     1
13    7     8     1
14    7     33    1
15    7     34    1
16    8     9     1
17    8     35    1
18    8     36    1
19    9     10    1
20    9     37    1
21    9     38    1
22    10    11    1
23    10    12    1
24    10    27    1
25    12    13    2
26    12    14    am
27    14    15    1
28    14    39    1
29    15    25    ar
30    15    16    ar
31    16    17    ar
32    16    40    1
33    17    18    ar
34    17    41    1
35    18    19    1
36    18    24    ar
37    19    23    1
38    19    20    2
39    20    21    1
40    21    22    1
41    21    42    1
42    22    23    2
43    24    25    ar
44    24    43    1
45    25    26    1
46    27    44    1
47    27    45    1
@<TRIPOS>SUBSTRUCTURE
1   ZINC000821442454 1     RESIDUE    1   A     ZIN   1
@<TRIPOS>MOLECULE
ZINC000822206030
51	55	1	0	0
SMALL
USER_CHARGES
@<TRIPOS>ATOM
1      C1     -0.0184    1.5028    0.0103 C.3      1 ZINC000822206030   -0.1300
2      C2      0.0021   -0.0041    0.0020 C.ar     1 ZINC000822206030   -0.0400
3      C3      0.0057   -0.6884   -1.1974 C.ar     1 ZINC000822206030   -0.1500
4      C4      0.0240   -2.0732   -1.2056 C.ar     1 ZINC000822206030    0.1100
5      F5      0.0271   -2.7409   -2.3800 F        1 ZINC000822206030   -0.1400
6      C6      0.0396   -2.7743   -0.0117 C.ar     1 ZINC000822206030   -0.1500
7      C7      0.0360   -2.0935    1.1902 C.ar     1 ZINC000822206030   -0.0800
8      C8      0.0230   -0.7053    1.2005 C.ar     1 ZINC000822206030    0.1100
9      N9      0.0198   -0.0132    2.4178 N.am     1 ZINC000822206030   -0.5600
10     C10     1.2868    0.3607    3.0512 C.3      1 ZINC000822206030    0.1500
11     C11     1.7077    1.7240    2.5662 C.ar     1 ZINC000822206030   -0.0900
12     C12     2.4975    1.8400    1.4366 C.ar     1 ZINC000822206030   -0.1000
13     C13     2.8855    3.0862    0.9878 C.ar     1 ZINC000822206030   -0.0800
14     C14     2.4803    4.2284    1.6746 C.ar     1 ZINC000822206030   -0.0100
15     C15     2.8942    5.5715    1.1963 C.2      1 ZINC000822206030    0.2200
16     N16     2.5916    6.7307    1.7458 N.2      1 ZINC000822206030   -0.2900
17     N17     3.1373    7.6579    1.0364 N.pl3    1 ZINC000822206030   -0.2300
18     N18     3.7759    7.1230    0.0550 N.2      1 ZINC000822206030   -0.0500
19     N19     3.6532    5.8409    0.1247 N.2      1 ZINC000822206030   -0.2700
20     C20     1.6850    4.1059    2.8117 C.ar     1 ZINC000822206030   -0.0800
21     C21     1.2983    2.8551    3.2489 C.ar     1 ZINC000822206030   -0.0900
22     C22    -1.1489    0.3089    3.0068 C.2      1 ZINC000822206030    0.5500
23     O23    -1.1517    0.9083    4.0612 O.2      1 ZINC000822206030   -0.5000
24     C24    -2.4522   -0.0757    2.3553 C.3      1 ZINC000822206030   -0.1900
25     H25    -2.4463   -1.0223    1.8149 H        1 ZINC000822206030    0.1200
26     C26    -3.3221    1.0517    1.7958 C.3      1 ZINC000822206030   -0.1400
27     C27    -3.7444    0.3203    3.0724 C.3      1 ZINC000822206030   -0.0900
28     H28    -4.5888   -0.3656    3.0036 H        1 ZINC000822206030    0.1100
29     C29    -3.6152    1.0770    4.3959 C.3      1 ZINC000822206030   -0.1100
30     C30    -4.3899    0.5345    5.5985 C.3      1 ZINC000822206030   -0.2000
31     C31    -2.8687    0.3827    5.5367 C.3      1 ZINC000822206030   -0.1200
32     H32     1.0042    1.8801    0.0026 H        1 ZINC000822206030    0.0900
33     H33    -0.5455    1.8639   -0.8728 H        1 ZINC000822206030    0.0700
34     H34    -0.5286    1.8543    0.9071 H        1 ZINC000822206030    0.0700
35     H35    -0.0060   -0.1434   -2.1297 H        1 ZINC000822206030    0.1400
36     H36     0.0542   -3.8542   -0.0202 H        1 ZINC000822206030    0.1400
37     H37     0.0478   -2.6407    2.1212 H        1 ZINC000822206030    0.1400
38     H38     1.1591    0.3835    4.1335 H        1 ZINC000822206030    0.1000
39     H39     2.0526   -0.3700    2.7910 H        1 ZINC000822206030    0.0900
40     H40     2.8114    0.9538    0.9050 H        1 ZINC000822206030    0.1300
41     H41     3.5024    3.1757    0.1059 H        1 ZINC000822206030    0.1400
42     H42     3.0761    8.6096    1.2139 H        1 ZINC000822206030    0.4800
43     H43     1.3684    4.9882    3.3481 H        1 ZINC000822206030    0.1300
44     H44     0.6816    2.7589    4.1303 H        1 ZINC000822206030    0.1400
45     H45    -2.9517    2.0716    1.8990 H        1 ZINC000822206030    0.1000
46     H46    -3.8888    0.8467    0.8875 H        1 ZINC000822206030    0.1000
47     H47    -3.5103    2.1586    4.3106 H        1 ZINC000822206030    0.1000
48     H48    -4.7951    1.2592    6.3047 H        1 ZINC000822206030    0.0900
49     H49    -4.9917   -0.3615    5.4469 H        1 ZINC000822206030    0.0900
50     H50    -2.4698   -0.6133    5.3445 H        1 ZINC000822206030    0.0800
51     H51    -2.2732    1.0075    6.2023 H        1 ZINC000822206030    0.0900
@<TRIPOS>BOND
1     1     2     1
2     1     32    1
3     1     33    1
4     1     34    1
5     2     8     ar
6     2     3     ar
7     3     4     ar
8     3     35    1
9     4     5     1
10    4     6     ar
11    6     7     ar
12    6     36    1
13    7     8     ar
14    7     37    1
15    8     9     1
16    9     10    1
17    9     22    am
18    10    11    1
19    10    38    1
20    10    39    1
21    11    21    ar
22    11    12    ar
23    12    13    ar
24    12    40    1
25    13    14    ar
26    13    41    1
27    14    15    1
28    14    20    ar
29    15    19    1
30    15    16    2
31    16    17    1
32    17    18    1
33    17    42    1
34    18    19    2
35    20    21    ar
36    20    43    1
37    21    44    1
38    22    23    2
39    22    24    1
40    24    25    1
41    24    27    1
42    24    26    1
43    26    27    1
44    26    45    1
45    26    46    1
46    27    28    1
47    27    29    1
48    29    31    1
49    29    30    1
50    29    47    1
51    30    31    1
52    30    48    1
53    30    49    1
54    31    50    1
55    31    51    1
@<TRIPOS>SUBSTRUCTURE
1   ZINC000822206030 1     RESIDUE    1   A     ZIN   1
@<TRIPOS>MOLECULE
ZINC000451019064
57	58	1	0	0
SMALL
USER_CHARGES
@<TRIPOS>ATOM
1      C1     -0.0187    1.5258    0.0104 C.3      1 ZINC000451019064   -0.1500
2      C2      0.0021   -0.0041    0.0020 C.3      1 ZINC000451019064    0.0900
3      H3      0.5122   -0.3562   -0.8946 H        1 ZINC000451019064    0.0700
4      C4     -1.4339   -0.5349    0.0151 C.3      1 ZINC000451019064    0.0200
5      N5     -1.4075   -2.0031    0.0848 N.3      1 ZINC000451019064   -0.5400
6      C6     -2.7675   -2.5567    0.0422 C.3      1 ZINC000451019064    0.0600
7      C7     -2.7200   -4.0515    0.3653 C.3      1 ZINC000451019064   -0.1300
8      C8     -4.1365   -4.6281    0.3210 C.3      1 ZINC000451019064    0.1100
9      N9     -4.0910   -6.0593    0.6304 N.am     1 ZINC000451019064   -1.1200
10     S10    -5.4833   -6.8669    1.0200 S.o2     1 ZINC000451019064    2.6100
11     O11    -5.0565   -8.1979    1.2760 O.2      1 ZINC000451019064   -0.9600
12     O12    -6.0721   -6.0766    2.0437 O.2      1 ZINC000451019064   -0.9500
13     C13    -6.4840   -6.7990   -0.4915 C.3      1 ZINC000451019064   -0.6300
14     C14    -7.8127   -7.5202   -0.2564 C.3      1 ZINC000451019064   -0.1100
15     C15    -8.6567   -7.4629   -1.5312 C.3      1 ZINC000451019064   -0.0800
16     C16    -7.9588   -8.2519   -2.6408 C.3      1 ZINC000451019064   -0.1200
17     C17    -8.8028   -8.1946   -3.9157 C.3      1 ZINC000451019064   -0.1200
18     C18   -10.1791   -8.8052   -3.6440 C.3      1 ZINC000451019064   -0.1200
19     C19   -10.8771   -8.0162   -2.5344 C.3      1 ZINC000451019064   -0.1200
20     C20   -10.0330   -8.0735   -1.2595 C.3      1 ZINC000451019064   -0.1200
21     C21    -0.6922   -2.4548    1.2872 C.3      1 ZINC000451019064    0.0200
22     C22     0.7363   -1.9047    1.2614 C.3      1 ZINC000451019064    0.0900
23     H23     1.2680   -2.3127    0.4018 H        1 ZINC000451019064    0.0700
24     C24     1.4614   -2.3052    2.5478 C.3      1 ZINC000451019064   -0.1500
25     O25     0.6919   -0.4787    1.1614 O.3      1 ZINC000451019064   -0.3800
26     H26     1.0039    1.9031    0.0027 H        1 ZINC000451019064    0.0700
27     H27    -0.5459    1.8868   -0.8726 H        1 ZINC000451019064    0.0700
28     H28    -0.5289    1.8773    0.9072 H        1 ZINC000451019064    0.0600
29     H29    -1.9605   -0.1387    0.8833 H        1 ZINC000451019064    0.0400
30     H30    -1.9455   -0.2229   -0.8954 H        1 ZINC000451019064    0.0900
31     H31    -3.3908   -2.0460    0.7762 H        1 ZINC000451019064    0.0400
32     H32    -3.1871   -2.4134   -0.9535 H        1 ZINC000451019064    0.0800
33     H33    -2.0967   -4.5622   -0.3686 H        1 ZINC000451019064    0.0800
34     H34    -2.3004   -4.1948    1.3611 H        1 ZINC000451019064    0.0800
35     H35    -4.7598   -4.1173    1.0550 H        1 ZINC000451019064    0.0800
36     H36    -4.5561   -4.4847   -0.6747 H        1 ZINC000451019064    0.0700
37     H37    -3.2454   -6.5340    0.6070 H        1 ZINC000451019064    0.4200
38     H38    -6.6767   -5.7585   -0.7533 H        1 ZINC000451019064    0.1300
39     H39    -5.9460   -7.2847   -1.3056 H        1 ZINC000451019064    0.1400
40     H40    -7.6200   -8.5606    0.0054 H        1 ZINC000451019064    0.0800
41     H41    -8.3507   -7.0344    0.5577 H        1 ZINC000451019064    0.0800
42     H42    -8.7747   -6.4250   -1.8425 H        1 ZINC000451019064    0.0800
43     H43    -6.9783   -7.8169   -2.8344 H        1 ZINC000451019064    0.0600
44     H44    -7.8407   -9.2898   -2.3295 H        1 ZINC000451019064    0.0700
45     H45    -8.9208   -7.1567   -4.2269 H        1 ZINC000451019064    0.0600
46     H46    -8.3056   -8.7567   -4.7062 H        1 ZINC000451019064    0.0600
47     H47   -10.7804   -8.7644   -4.5522 H        1 ZINC000451019064    0.0600
48     H48   -10.0611   -9.8431   -3.3327 H        1 ZINC000451019064    0.0600
49     H49   -10.9951   -6.9783   -2.8456 H        1 ZINC000451019064    0.0600
50     H50   -11.8576   -8.4512   -2.3408 H        1 ZINC000451019064    0.0600
51     H51    -9.9150   -9.1114   -0.9482 H        1 ZINC000451019064    0.0700
52     H52   -10.5303   -7.5114   -0.4690 H        1 ZINC000451019064    0.0600
53     H53    -1.2069   -2.0892    2.1757 H        1 ZINC000451019064    0.0400
54     H54    -0.6624   -3.5442    1.3053 H        1 ZINC000451019064    0.0900
55     H55     1.4922   -3.3921    2.6241 H        1 ZINC000451019064    0.0700
56     H56     2.4783   -1.9133    2.5288 H        1 ZINC000451019064    0.0700
57     H57     0.9301   -1.8956    3.4069 H        1 ZINC000451019064    0.0600
@<TRIPOS>BOND
1     1     2     1
2     1     26    1
3     1     27    1
4     1     28    1
5     2     3     1
6     2     25    1
7     2     4     1
8     4     5     1
9     4     29    1
10    4     30    1
11    5     6     1
12    5     21    1
13    6     7     1
14    6     31    1
15    6     32    1
16    7     8     1
17    7     33    1
18    7     34    1
19    8     9     1
20    8     35    1
21    8     36    1
22    9     10    am
23    9     37    1
24    10    11    2
25    10    12    2
26    10    13    1
27    13    14    1
28    13    38    1
29    13    39    1
30    14    15    1
31    14    40    1
32    14    41    1
33    15    20    1
34    15    16    1
35    15    42    1
36    16    17    1
37    16    43    1
38    16    44    1
39    17    18    1
40    17    45    1
41    17    46    1
42    18    19    1
43    18    47    1
44    18    48    1
45    19    20    1
46    19    49    1
47    19    50    1
48    20    51    1
49    20    52    1
50    21    22    1
51    21    53    1
52    21    54    1
53    22    23    1
54    22    24    1
55    22    25    1
56    24    55    1
57    24    56    1
58    24    57    1
@<TRIPOS>SUBSTRUCTURE
1   ZINC000451019064 1     RESIDUE    1   A     ZIN   1
@<TRIPOS>MOLECULE
ZINC001041713551
48	49	1	0	0
SMALL
USER_CHARGES
@<TRIPOS>ATOM
1      C1     -0.0187    1.5258    0.0104 C.3      1 ZINC001041713551   -0.1500
2      C2      0.0021   -0.0041    0.0020 C.3      1 ZINC001041713551   -0.1100
3      C3      0.7421   -0.5109    1.2415 C.3      1 ZINC001041713551   -0.1000
4      S4      0.7667   -2.3247    1.2316 S.3      1 ZINC001041713551   -0.1800
5      C5      1.6704   -2.7289    2.7516 C.3      1 ZINC001041713551   -0.1300
6      C6      1.7771   -4.2258    2.8896 C.2      1 ZINC001041713551    0.5300
7      O7      1.2912   -4.9487    2.0457 O.2      1 ZINC001041713551   -0.5100
8      N8      2.4124   -4.7611    3.9509 N.am     1 ZINC001041713551   -0.7300
9      C9      2.5160   -6.2163    4.0851 C.3      1 ZINC001041713551    0.1000
10     C10     3.2783   -6.5572    5.3671 C.3      1 ZINC001041713551    0.0900
11     O11     4.4917   -5.8156    5.5077 O.3      1 ZINC001041713551   -0.5200
12     C12     2.3984   -6.5559    6.6303 C.3      1 ZINC001041713551    0.0900
13     N13     3.1278   -7.7789    7.0178 N.am     1 ZINC001041713551   -0.6400
14     C14     3.3966   -8.3869    8.1903 C.2      1 ZINC001041713551    0.5500
15     O15     2.9956   -7.9057    9.2288 O.2      1 ZINC001041713551   -0.5100
16     C16     4.1954   -9.6646    8.2108 C.3      1 ZINC001041713551    0.0800
17     H17     5.1436   -9.5088    7.6963 H        1 ZINC001041713551    0.0800
18     C18     3.4072  -10.7708    7.5046 C.3      1 ZINC001041713551   -0.1500
19     C19     4.1985  -12.0801    7.5822 C.3      1 ZINC001041713551   -0.1200
20     C20     4.4745  -12.4106    9.0522 C.3      1 ZINC001041713551   -0.1600
21     C21     5.2214  -11.2411    9.6986 C.3      1 ZINC001041713551    0.0600
22     O22     4.4451  -10.0489    9.5643 O.3      1 ZINC001041713551   -0.3600
23     C23     3.4446   -8.0689    5.6059 C.3      1 ZINC001041713551    0.1200
24     H24     1.0039    1.9031    0.0027 H        1 ZINC001041713551    0.0600
25     H25    -0.5459    1.8868   -0.8726 H        1 ZINC001041713551    0.0600
26     H26    -0.5289    1.8773    0.9072 H        1 ZINC001041713551    0.0600
27     H27    -1.0205   -0.3814    0.0098 H        1 ZINC001041713551    0.0700
28     H28     0.5123   -0.3556   -0.8948 H        1 ZINC001041713551    0.0700
29     H29     1.7647   -0.1336    1.2338 H        1 ZINC001041713551    0.0800
30     H30     0.2319   -0.1594    2.1383 H        1 ZINC001041713551    0.0800
31     H31     2.6698   -2.2961    2.7060 H        1 ZINC001041713551    0.1100
32     H32     1.1370   -2.3219    3.6106 H        1 ZINC001041713551    0.1100
33     H33     2.8009   -4.1829    4.6259 H        1 ZINC001041713551    0.4000
34     H34     1.5166   -6.6490    4.1306 H        1 ZINC001041713551    0.0900
35     H35     3.0494   -6.6233    3.2261 H        1 ZINC001041713551    0.0900
36     H36     4.3859   -4.8619    5.3874 H        1 ZINC001041713551    0.3800
37     H37     2.5797   -5.7082    7.2912 H        1 ZINC001041713551    0.0900
38     H38     1.3400   -6.7209    6.4287 H        1 ZINC001041713551    0.1000
39     H39     2.4416  -10.8993    7.9938 H        1 ZINC001041713551    0.0800
40     H40     3.2541  -10.4991    6.4601 H        1 ZINC001041713551    0.0800
41     H41     3.6179  -12.8844    7.1304 H        1 ZINC001041713551    0.0700
42     H42     5.1432  -11.9673    7.0503 H        1 ZINC001041713551    0.0700
43     H43     3.5305  -12.5722    9.5727 H        1 ZINC001041713551    0.0700
44     H44     5.0847  -13.3117    9.1146 H        1 ZINC001041713551    0.0800
45     H45     5.3829  -11.4526   10.7557 H        1 ZINC001041713551    0.1000
46     H46     6.1832  -11.1060    9.2038 H        1 ZINC001041713551    0.0500
47     H47     2.6935   -8.6783    5.1033 H        1 ZINC001041713551    0.1100
48     H48     4.4613   -8.4292    5.4488 H        1 ZINC001041713551    0.1000
@<TRIPOS>BOND
1     1     2     1
2     1     24    1
3     1     25    1
4     1     26    1
5     2     3     1
6     2     27    1
7     2     28    1
8     3     4     1
9     3     29    1
10    3     30    1
11    4     5     1
12    5     6     1
13    5     31    1
14    5     32    1
15    6     7     2
16    6     8     am
17    8     9     1
18    8     33    1
19    9     10    1
20    9     34    1
21    9     35    1
22    10    23    1
23    10    11    1
24    10    12    1
25    11    36    1
26    12    13    1
27    12    37    1
28    12    38    1
29    13    14    am
30    13    23    1
31    14    15    2
32    14    16    1
33    16    17    1
34    16    22    1
35    16    18    1
36    18    19    1
37    18    39    1
38    18    40    1
39    19    20    1
40    19    41    1
41    19    42    1
42    20    21    1
43    20    43    1
44    20    44    1
45    21    22    1
46    21    45    1
47    21    46    1
48    23    47    1
49    23    48    1
@<TRIPOS>SUBSTRUCTURE
1   ZINC001041713551 1     RESIDUE    1   A     ZIN   1
@<TRIPOS>MOLECULE
ZINC000033150761
42	45	1	0	0
SMALL
USER_CHARGES
@<TRIPOS>ATOM
1      O1      0.0021   -0.0041    0.0020 O.2      1 ZINC000033150761   -0.5000
2      C2     -0.0144    1.2086    0.0087 C.2      1 ZINC000033150761    0.5200
3      C3      1.2803    1.9798    0.0005 C.3      1 ZINC000033150761   -0.1300
4      C4      2.4566    1.0015   -0.0160 C.3      1 ZINC000033150761   -0.0100
5      C5      3.7513    1.7727   -0.0242 C.2      1 ZINC000033150761    0.1800
6      N6      4.4324    2.1606    1.0250 N.2      1 ZINC000033150761   -0.4400
7      C7      5.5120    2.8118    0.5367 C.2      1 ZINC000033150761    0.2200
8      C8      6.5951    3.4429    1.3325 C.ar     1 ZINC000033150761    0.1900
9      C9      7.6447    4.0857    0.6820 C.ar     1 ZINC000033150761   -0.1300
10     C10     8.6479    4.6699    1.4375 C.ar     1 ZINC000033150761   -0.0700
11     C11     8.5666    4.5908    2.8197 C.ar     1 ZINC000033150761   -0.1500
12     C12     7.4945    3.9361    3.3997 C.ar     1 ZINC000033150761    0.1100
13     N13     6.5515    3.3941    2.6573 N.ar     1 ZINC000033150761   -0.4500
14     N14     5.4241    2.7815   -0.7672 N.2      1 ZINC000033150761   -0.3600
15     O15     4.4234    2.1844   -1.1038 O.3      1 ZINC000033150761    0.0900
16     N16    -1.1906    1.8666    0.0178 N.am     1 ZINC000033150761   -0.6200
17     C17    -2.3844    1.1555    0.0196 C.2      1 ZINC000033150761    0.2700
18     N18    -3.5697    1.6811    0.0230 N.2      1 ZINC000033150761   -0.5000
19     C19    -4.5987    0.8454    0.0242 C.2      1 ZINC000033150761    0.1200
20     C20    -6.0045    1.3188    0.0275 C.ar     1 ZINC000033150761    0.0000
21     C21    -7.0514    0.3991    0.0341 C.ar     1 ZINC000033150761   -0.0800
22     C22    -8.3584    0.8430    0.0376 C.ar     1 ZINC000033150761   -0.1200
23     C23    -8.6314    2.2003    0.0346 C.ar     1 ZINC000033150761    0.0700
24     F24    -9.9122    2.6299    0.0381 F        1 ZINC000033150761   -0.1300
25     C25    -7.5928    3.1208    0.0285 C.ar     1 ZINC000033150761    0.0700
26     F26    -7.8640    4.4443    0.0261 F        1 ZINC000033150761   -0.1300
27     C27    -6.2819    2.6849    0.0299 C.ar     1 ZINC000033150761   -0.1000
28     C28    -4.2802   -0.4613    0.0219 C.2      1 ZINC000033150761   -0.2800
29     S29    -2.5235   -0.6000    0.0101 S.3      1 ZINC000033150761    0.2200
30     H30     1.3211    2.6120   -0.8866 H        1 ZINC000033150761    0.1200
31     H31     1.3381    2.6024    0.8933 H        1 ZINC000033150761    0.1200
32     H32     2.4158    0.3693    0.8710 H        1 ZINC000033150761    0.1300
33     H33     2.3988    0.3789   -0.9088 H        1 ZINC000033150761    0.1200
34     H34     7.6764    4.1280   -0.3967 H        1 ZINC000033150761    0.1400
35     H35     9.4749    5.1752    0.9610 H        1 ZINC000033150761    0.1500
36     H36     9.3328    5.0357    3.4374 H        1 ZINC000033150761    0.1400
37     H37     7.4278    3.8725    4.4757 H        1 ZINC000033150761    0.1700
38     H38    -1.2037    2.8365    0.0232 H        1 ZINC000033150761    0.4300
39     H39    -6.8403   -0.6600    0.0360 H        1 ZINC000033150761    0.1400
40     H40    -9.1697    0.1301    0.0423 H        1 ZINC000033150761    0.1500
41     H41    -5.4735    3.4011    0.0252 H        1 ZINC000033150761    0.1600
42     H42    -4.9803   -1.2836    0.0225 H        1 ZINC000033150761    0.1800
@<TRIPOS>BOND
1     1     2     2
2     2     3     1
3     2     16    am
4     3     4     1
5     3     30    1
6     3     31    1
7     4     5     1
8     4     32    1
9     4     33    1
10    5     15    1
11    5     6     2
12    6     7     1
13    7     8     1
14    7     14    2
15    8     13    ar
16    8     9     ar
17    9     10    ar
18    9     34    1
19    10    11    ar
20    10    35    1
21    11    12    ar
22    11    36    1
23    12    13    ar
24    12    37    1
25    14    15    1
26    16    17    1
27    16    38    1
28    17    29    1
29    17    18    2
30    18    19    1
31    19    20    1
32    19    28    2
33    20    27    ar
34    20    21    ar
35    21    22    ar
36    21    39    1
37    22    23    ar
38    22    40    1
39    23    24    1
40    23    25    ar
41    25    26    1
42    25    27    ar
43    27    41    1
44    28    29    1
45    28    42    1
@<TRIPOS>SUBSTRUCTURE
1   ZINC000033150761 1     RESIDUE    1   A     ZIN   1
@<TRIPOS>MOLECULE
ZINC001490207225
46	48	1	0	0
SMALL
USER_CHARGES
@<TRIPOS>ATOM
1      C1      0.2637   -1.3501   -6.1193 C.3      1 ZINC001490207225    0.0900
2      N2      0.1077   -2.2895   -5.0060 N.pl3    1 ZINC001490207225   -0.3600
3      C3      0.2309   -1.9894   -3.7032 C.2      1 ZINC001490207225    0.1300
4      C4      0.0084   -3.1496   -2.9890 C.2      1 ZINC001490207225   -0.3000
5      C5      0.0410   -3.2943   -1.5222 C.2      1 ZINC001490207225    0.6200
6      O6      0.1420   -2.3094   -0.8162 O.2      1 ZINC001490207225   -0.5400
7      N7     -0.0411   -4.5182   -0.9638 N.am     1 ZINC001490207225   -0.6200
8      C8     -0.1546   -4.8245    0.4715 C.3      1 ZINC001490207225    0.1100
9      C9      0.5522   -6.1732    0.6850 C.3      1 ZINC001490207225   -0.1100
10     H10     1.5364   -6.0526    1.1378 H        1 ZINC001490207225    0.1000
11     C11    -0.3614   -7.0949    1.5200 C.3      1 ZINC001490207225    0.1000
12     N12    -0.2792   -8.4132    0.8499 N.am     1 ZINC001490207225   -0.6200
13     C13    -0.2166   -9.6305    1.4249 C.2      1 ZINC001490207225    0.5300
14     O14    -0.1530  -10.6251    0.7337 O.2      1 ZINC001490207225   -0.5300
15     C15    -0.2255   -9.7559    2.9266 C.3      1 ZINC001490207225    0.1200
16     N16    -0.1496  -11.1708    3.2990 N.am     1 ZINC001490207225   -0.7400
17     C17    -0.1434  -11.5260    4.5991 C.2      1 ZINC001490207225    0.7100
18     N18    -0.0735  -12.8276    4.9417 N.am     1 ZINC001490207225   -0.8600
19     O19    -0.2009  -10.6723    5.4629 O.2      1 ZINC001490207225   -0.5900
20     C20    -0.2815   -8.0900   -0.5955 C.3      1 ZINC001490207225    0.1100
21     C21     0.6303   -6.8205   -0.7221 C.3      1 ZINC001490207225   -0.0800
22     C22     2.0559   -7.1766   -1.1485 C.3      1 ZINC001490207225   -0.1300
23     C23    -0.0413   -5.8095   -1.6705 C.3      1 ZINC001490207225    0.1000
24     C24    -0.2568   -4.1724   -3.9270 C.2      1 ZINC001490207225    0.0700
25     N25    -0.2008   -3.6496   -5.1209 N.2      1 ZINC001490207225   -0.2900
26     H26    -0.6996   -0.8942   -6.3477 H        1 ZINC001490207225    0.0800
27     H27     0.9766   -0.5735   -5.8422 H        1 ZINC001490207225    0.0900
28     H28     0.6303   -1.8837   -6.9962 H        1 ZINC001490207225    0.1000
29     H29     0.4619   -1.0187   -3.2898 H        1 ZINC001490207225    0.1900
30     H30     0.3352   -4.0483    1.0595 H        1 ZINC001490207225    0.0900
31     H31    -1.2041   -4.9032    0.7553 H        1 ZINC001490207225    0.0800
32     H32     0.0049   -7.1660    2.5441 H        1 ZINC001490207225    0.0900
33     H33    -1.3869   -6.7257    1.5073 H        1 ZINC001490207225    0.0900
34     H34     0.6315   -9.2247    3.3407 H        1 ZINC001490207225    0.1000
35     H35    -1.1456   -9.3251    3.3217 H        1 ZINC001490207225    0.1000
36     H36    -0.1037  -11.8519    2.6099 H        1 ZINC001490207225    0.4100
37     H37    -0.0277  -13.5087    4.2525 H        1 ZINC001490207225    0.4000
38     H38    -0.0691  -13.0833    5.8773 H        1 ZINC001490207225    0.4200
39     H39     0.1450   -8.9127   -1.1693 H        1 ZINC001490207225    0.0900
40     H40    -1.2947   -7.8744   -0.9348 H        1 ZINC001490207225    0.0800
41     H41     2.0330   -7.6590   -2.1257 H        1 ZINC001490207225    0.0700
42     H42     2.6557   -6.2683   -1.2056 H        1 ZINC001490207225    0.0600
43     H43     2.4945   -7.8563   -0.4180 H        1 ZINC001490207225    0.0600
44     H44    -1.0699   -6.1099   -1.8699 H        1 ZINC001490207225    0.0800
45     H45     0.5174   -5.7443   -2.6042 H        1 ZINC001490207225    0.0900
46     H46    -0.4724   -5.2051   -3.6959 H        1 ZINC001490207225    0.2000
@<TRIPOS>BOND
1     1     2     1
2     1     26    1
3     1     27    1
4     1     28    1
5     2     25    1
6     2     3     1
7     3     4     2
8     3     29    1
9     4     5     1
10    4     24    1
11    5     6     2
12    5     7     am
13    7     23    1
14    7     8     1
15    8     9     1
16    8     30    1
17    8     31    1
18    9     10    1
19    9     21    1
20    9     11    1
21    11    12    1
22    11    32    1
23    11    33    1
24    12    13    am
25    12    20    1
26    13    14    2
27    13    15    1
28    15    16    1
29    15    34    1
30    15    35    1
31    16    17    am
32    16    36    1
33    17    18    am
34    17    19    2
35    18    37    1
36    18    38    1
37    20    21    1
38    20    39    1
39    20    40    1
40    21    22    1
41    21    23    1
42    22    41    1
43    22    42    1
44    22    43    1
45    23    44    1
46    23    45    1
47    24    25    2
48    24    46    1
@<TRIPOS>SUBSTRUCTURE
1   ZINC001490207225 1     RESIDUE    1   A     ZIN   1
@<TRIPOS>MOLECULE
ZINC000012979878
43	45	0	0	0
SMALL
USER_CHARGES
@<TRIPOS>ATOM
1 C1        0.7458     1.6870    -4.2494 C.3    1 <0>       0.0300
2 O2        0.7861     0.2670    -4.4044 O.3    1 <0>      -0.3100
3 C3        0.9958    -0.4704    -3.2823 C.ar   1 <0>       0.1500
4 C4        1.1537     0.1605    -2.0564 C.ar   1 <0>      -0.2200
5 C5        1.3675    -0.5880    -0.9143 C.ar   1 <0>      -0.0600
6 C6        1.4243    -1.9659    -0.9891 C.ar   1 <0>      -0.1800
7 C7        1.2669    -2.6031    -2.2139 C.ar   1 <0>       0.1800
8 N8        1.3244    -3.9982    -2.2897 N.am   1 <0>      -0.6700
9 C9        1.8334    -4.5931    -3.3868 C.2    1 <0>       0.6000
10 O10       2.3304    -3.9186    -4.2694 O.2    1 <0>      -0.4900
11 C11       1.7883    -6.0531    -3.5169 C.2    1 <0>      -0.3000
12 C12       2.2659    -6.7785    -4.5593 C.2    1 <0>       0.1600
13 C13       2.9277    -6.1505    -5.7588 C.3    1 <0>      -0.0900
14 N14       2.1028    -8.0715    -4.4325 N.2    1 <0>      -0.4500
15 C15       1.5207    -8.4951    -3.3569 C.2    1 <0>       0.0600
16 C16       1.2483    -9.9429    -3.0395 C.3    1 <0>       0.1300
17 O17       2.3591   -10.4916    -2.3274 O.3    1 <0>      -0.3000
18 C18       2.2737   -11.7982    -1.9627 C.ar   1 <0>       0.1300
19 C19       1.1465   -12.5380    -2.2888 C.ar   1 <0>      -0.2000
20 C20       1.0615   -13.8658    -1.9172 C.ar   1 <0>      -0.0700
21 C21       2.0997   -14.4578    -1.2198 C.ar   1 <0>      -0.0700
22 Cl22      1.9904   -16.1264    -0.7535 Cl     1 <0>      -0.0700
23 C23       3.2250   -13.7216    -0.8941 C.ar   1 <0>      -0.0700
24 C24       3.3162   -12.3951    -1.2689 C.ar   1 <0>      -0.1300
25 S25       1.1110    -7.1803    -2.3440 S.3    1 <0>       0.2000
26 C26       1.0465    -1.8534    -3.3607 C.ar   1 <0>      -0.1500
27 H27      -0.0612     1.9553    -3.5676 H      1 <0>       0.0600
28 H28       1.6955     2.0353    -3.8434 H      1 <0>       0.0600
29 H29       0.5724     2.1536    -5.2192 H      1 <0>       0.1000
30 H30       1.1098     1.2379    -1.9948 H      1 <0>       0.1300
31 H31       1.4908    -0.0944     0.0383 H      1 <0>       0.1300
32 H32       1.5915    -2.5485    -0.0952 H      1 <0>       0.1300
33 H33       0.9979    -4.5379    -1.5528 H      1 <0>       0.4100
34 H34       4.0001    -6.0692    -5.5810 H      1 <0>       0.0900
35 H35       2.7512    -6.7709    -6.6375 H      1 <0>       0.0800
36 H36       2.5107    -5.1574    -5.9254 H      1 <0>       0.1000
37 H37       0.3506   -10.0176    -2.4258 H      1 <0>       0.0900
38 H38       1.1017   -10.4968    -3.9668 H      1 <0>       0.1000
39 H39       0.3356   -12.0761    -2.8324 H      1 <0>       0.1400
40 H40       0.1841   -14.4421    -2.1709 H      1 <0>       0.1400
41 H41       4.0345   -14.1855    -0.3500 H      1 <0>       0.1400
42 H42       4.1947   -11.8208    -1.0144 H      1 <0>       0.1400
43 H43       0.9234    -2.3461    -4.3138 H      1 <0>       0.1400
@<TRIPOS>BOND
1    1    2 1
2    1   27 1
3    1   28 1
4    1   29 1
5    2    3 1
6    3   26 ar
7    3    4 ar
8    4    5 ar
9    4   30 1
10    5    6 ar
11    5   31 1
12    6    7 ar
13    6   32 1
14    7    8 1
15    7   26 ar
16    8    9 am
17    8   33 1
18    9   10 2
19    9   11 1
20   11   25 1
21   11   12 2
22   12   13 1
23   12   14 1
24   13   34 1
25   13   35 1
26   13   36 1
27   14   15 2
28   15   16 1
29   15   25 1
30   16   17 1
31   16   37 1
32   16   38 1
33   17   18 1
34   18   24 ar
35   18   19 ar
36   19   20 ar
37   19   39 1
38   20   21 ar
39   20   40 1
40   21   22 1
41   21   23 ar
42   23   24 ar
43   23   41 1
44   24   42 1
45   26   43 1
@<TRIPOS>MOLECULE
ZINC000750807956
58	59	1	0	0
SMALL
USER_CHARGES
@<TRIPOS>ATOM
1      C1     -2.0577    0.3302    0.6050 C.3      1 ZINC000750807956   -0.1500
2      C2     -0.8480   -0.5302    0.2342 C.3      1 ZINC000750807956    0.0700
3      O3     -0.2294   -1.0426    1.4437 O.3      1 ZINC000750807956   -0.3600
4      C4      0.8530   -1.8217    1.2917 C.2      1 ZINC000750807956    0.4800
5      O5      1.2697   -2.0674    0.1845 O.2      1 ZINC000750807956   -0.4900
6      C6      1.5484   -2.3900    2.5018 C.3      1 ZINC000750807956    0.1600
7      H7      1.1014   -1.9787    3.4069 H        1 ZINC000750807956    0.1000
8      C8      3.0367   -2.0302    2.4550 C.3      1 ZINC000750807956   -0.1300
9      C9      3.7620   -2.7252    3.6096 C.3      1 ZINC000750807956   -0.1200
10     C10     3.6268   -4.2422    3.4599 C.3      1 ZINC000750807956   -0.1400
11     C11     2.1451   -4.6270    3.5181 C.3      1 ZINC000750807956    0.1100
12     N12     1.4124   -3.8529    2.5063 N.am     1 ZINC000750807956   -0.6100
13     C13     0.6350   -4.4736    1.5971 C.2      1 ZINC000750807956    0.5100
14     O14     0.0899   -3.8304    0.7252 O.2      1 ZINC000750807956   -0.5000
15     C15     0.4429   -5.9668    1.6637 C.3      1 ZINC000750807956   -0.1400
16     C16    -0.4769   -6.4140    0.5257 C.3      1 ZINC000750807956    0.2100
17     H17    -0.0713   -6.0700   -0.4257 H        1 ZINC000750807956    0.1000
18     N18    -1.8112   -5.8424    0.7230 N.am     1 ZINC000750807956   -0.7000
19     C19    -2.6276   -5.6565   -0.3331 C.2      1 ZINC000750807956    0.6600
20     O20    -2.2569   -5.9630   -1.4490 O.2      1 ZINC000750807956   -0.5600
21     O21    -3.8539   -5.1312   -0.1518 O.3      1 ZINC000750807956   -0.3700
22     C22    -4.6789   -4.9594   -1.3343 C.3      1 ZINC000750807956    0.1400
23     C23    -4.9080   -6.3187   -1.9982 C.3      1 ZINC000750807956   -0.1800
24     C24    -6.0257   -4.3544   -0.9331 C.3      1 ZINC000750807956   -0.1400
25     C25    -3.9723   -4.0242   -2.3176 C.3      1 ZINC000750807956   -0.1800
26     C26    -0.5723   -7.9410    0.5172 C.3      1 ZINC000750807956   -0.1800
27     C27    -1.9427   -8.5647    0.7890 C.3      1 ZINC000750807956   -0.1700
28     C28    -1.3556   -8.5935   -0.6236 C.3      1 ZINC000750807956   -0.1800
29     H29    -1.7334    1.1635    1.2284 H        1 ZINC000750807956    0.0600
30     H30    -2.5220    0.7148   -0.3030 H        1 ZINC000750807956    0.0800
31     H31    -2.7793   -0.2749    1.1539 H        1 ZINC000750807956    0.0700
32     H32    -1.1723   -1.3635   -0.3892 H        1 ZINC000750807956    0.0700
33     H33    -0.1264    0.0749   -0.3147 H        1 ZINC000750807956    0.0600
34     H34     3.4613   -2.3609    1.5071 H        1 ZINC000750807956    0.0800
35     H35     3.1532   -0.9506    2.5494 H        1 ZINC000750807956    0.0800
36     H36     4.8169   -2.4512    3.5932 H        1 ZINC000750807956    0.0800
37     H37     3.3206   -2.4129    4.5561 H        1 ZINC000750807956    0.0700
38     H38     4.0458   -4.5521    2.5025 H        1 ZINC000750807956    0.0700
39     H39     4.1632   -4.7370    4.2695 H        1 ZINC000750807956    0.0800
40     H40     2.0359   -5.6920    3.3134 H        1 ZINC000750807956    0.0900
41     H41     1.7473   -4.4003    4.5073 H        1 ZINC000750807956    0.0800
42     H42     1.4089   -6.4621    1.5661 H        1 ZINC000750807956    0.1200
43     H43    -0.0069   -6.2329    2.6203 H        1 ZINC000750807956    0.1100
44     H44    -2.1072   -5.5977    1.6138 H        1 ZINC000750807956    0.4000
45     H45    -5.4113   -6.9850   -1.2977 H        1 ZINC000750807956    0.0600
46     H46    -5.5272   -6.1897   -2.8859 H        1 ZINC000750807956    0.0700
47     H47    -3.9485   -6.7497   -2.2841 H        1 ZINC000750807956    0.0900
48     H48    -5.8625   -3.3860   -0.4601 H        1 ZINC000750807956    0.0700
49     H49    -6.6450   -4.2254   -1.8207 H        1 ZINC000750807956    0.0800
50     H50    -6.5291   -5.0207   -0.2325 H        1 ZINC000750807956    0.0700
51     H51    -3.0128   -4.4552   -2.6035 H        1 ZINC000750807956    0.0900
52     H52    -4.5916   -3.8952   -3.2053 H        1 ZINC000750807956    0.0700
53     H53    -3.8091   -3.0558   -1.8447 H        1 ZINC000750807956    0.0600
54     H54     0.3046   -8.4689    0.8921 H        1 ZINC000750807956    0.1100
55     H55    -1.9677   -9.5031    1.3429 H        1 ZINC000750807956    0.0900
56     H56    -2.7763   -7.8871    0.9738 H        1 ZINC000750807956    0.0900
57     H57    -1.8030   -7.9349   -1.3681 H        1 ZINC000750807956    0.1200
58     H58    -0.9943   -9.5509   -0.9990 H        1 ZINC000750807956    0.0900
@<TRIPOS>BOND
1     1     2     1
2     1     29    1
3     1     30    1
4     1     31    1
5     2     3     1
6     2     32    1
7     2     33    1
8     3     4     1
9     4     5     2
10    4     6     1
11    6     7     1
12    6     12    1
13    6     8     1
14    8     9     1
15    8     34    1
16    8     35    1
17    9     10    1
18    9     36    1
19    9     37    1
20    10    11    1
21    10    38    1
22    10    39    1
23    11    12    1
24    11    40    1
25    11    41    1
26    12    13    am
27    13    14    2
28    13    15    1
29    15    16    1
30    15    42    1
31    15    43    1
32    16    17    1
33    16    18    1
34    16    26    1
35    18    19    am
36    18    44    1
37    19    20    2
38    19    21    1
39    21    22    1
40    22    23    1
41    22    24    1
42    22    25    1
43    23    45    1
44    23    46    1
45    23    47    1
46    24    48    1
47    24    49    1
48    24    50    1
49    25    51    1
50    25    52    1
51    25    53    1
52    26    28    1
53    26    27    1
54    26    54    1
55    27    28    1
56    27    55    1
57    27    56    1
58    28    57    1
59    28    58    1
@<TRIPOS>SUBSTRUCTURE
1   ZINC000750807956 1     RESIDUE    1   A     ZIN   1
@<TRIPOS>MOLECULE
ZINC000745364361
52	54	1	0	0
SMALL
USER_CHARGES
@<TRIPOS>ATOM
1      C1     -0.0073    1.5280    0.0380 C.3      1 ZINC000745364361   -0.1700
2      C2      0.0023   -0.0016    0.0031 C.3      1 ZINC000745364361    0.0700
3      H3      0.5284   -0.3817    0.8787 H        1 ZINC000745364361    0.1100
4      O4      0.6763   -0.4541   -1.2008 O.3      1 ZINC000745364361   -0.3200
5      C5      2.0016   -0.6508   -1.1198 C.2      1 ZINC000745364361    0.4700
6      O6      2.5793   -0.4516   -0.0775 O.2      1 ZINC000745364361   -0.4900
7      C7      2.7689   -1.1203   -2.3289 C.3      1 ZINC000745364361   -0.0400
8      H8      2.3790   -2.0845   -2.6549 H        1 ZINC000745364361    0.1200
9      C9      2.6151   -0.0997   -3.4584 C.3      1 ZINC000745364361   -0.1400
10     C10     4.2269   -1.2617   -1.9748 C.ar     1 ZINC000745364361   -0.0500
11     C11     4.9386   -0.1648   -1.5267 C.ar     1 ZINC000745364361   -0.1000
12     C12     6.2763   -0.2931   -1.2015 C.ar     1 ZINC000745364361   -0.0900
13     C13     6.9033   -1.5183   -1.3240 C.ar     1 ZINC000745364361   -0.1500
14     C14     6.1911   -2.6181   -1.7724 C.ar     1 ZINC000745364361    0.1000
15     F15     6.8031   -3.8165   -1.8927 F        1 ZINC000745364361   -0.1400
16     C16     4.8505   -2.4896   -2.0928 C.ar     1 ZINC000745364361   -0.1400
17     C17    -1.4153   -0.5130    0.0075 C.2      1 ZINC000745364361    0.5200
18     O18    -1.8460   -1.1146   -0.9537 O.2      1 ZINC000745364361   -0.5000
19     N19    -2.2045   -0.3019    1.0794 N.am     1 ZINC000745364361   -0.6700
20     C20    -3.5488   -0.6943    1.0475 C.ar     1 ZINC000745364361    0.1200
21     C21    -4.5112    0.0718    1.6920 C.ar     1 ZINC000745364361   -0.1100
22     C22    -5.8360   -0.3149    1.6606 C.ar     1 ZINC000745364361   -0.1400
23     C23    -6.2064   -1.4698    0.9842 C.ar     1 ZINC000745364361    0.1500
24     N24    -7.5506   -1.8624    0.9527 N.am     1 ZINC000745364361   -0.5600
25     C25    -8.0318   -3.1230    0.3753 C.3      1 ZINC000745364361    0.0900
26     C26    -9.4546   -3.3200    0.9436 C.3      1 ZINC000745364361   -0.1300
27     C27    -9.8754   -1.8644    1.2519 C.3      1 ZINC000745364361   -0.1500
28     C28    -8.5649   -1.1357    1.4526 C.2      1 ZINC000745364361    0.5200
29     O29    -8.4474   -0.0503    1.9811 O.2      1 ZINC000745364361   -0.5100
30     C30    -5.2442   -2.2351    0.3385 C.ar     1 ZINC000745364361   -0.1400
31     C31    -3.9199   -1.8463    0.3667 C.ar     1 ZINC000745364361   -0.0900
32     H32     1.0180    1.8979    0.0348 H        1 ZINC000745364361    0.0800
33     H33    -0.5334    1.9081   -0.8377 H        1 ZINC000745364361    0.0800
34     H34    -0.5132    1.8676    0.9417 H        1 ZINC000745364361    0.0800
35     H35     3.0051    0.8645   -3.1324 H        1 ZINC000745364361    0.0700
36     H36     3.1701   -0.4392   -4.3329 H        1 ZINC000745364361    0.0800
37     H37     1.5606    0.0026   -3.7145 H        1 ZINC000745364361    0.0800
38     H38     4.4495    0.7933   -1.4310 H        1 ZINC000745364361    0.1300
39     H39     6.8315    0.5648   -0.8518 H        1 ZINC000745364361    0.1400
40     H40     7.9483   -1.6181   -1.0706 H        1 ZINC000745364361    0.1400
41     H41     4.2940   -3.3467   -2.4422 H        1 ZINC000745364361    0.1400
42     H42    -1.8417    0.1218    1.8729 H        1 ZINC000745364361    0.4100
43     H43    -4.2232    0.9700    2.2181 H        1 ZINC000745364361    0.1300
44     H44    -6.5844    0.2805    2.1624 H        1 ZINC000745364361    0.1600
45     H45    -8.0665   -3.0510   -0.7118 H        1 ZINC000745364361    0.0800
46     H46    -7.3868   -3.9475    0.6790 H        1 ZINC000745364361    0.0900
47     H47   -10.1135   -3.7672    0.1993 H        1 ZINC000745364361    0.1000
48     H48    -9.4317   -3.9204    1.8531 H        1 ZINC000745364361    0.0900
49     H49   -10.4272   -1.4409    0.4127 H        1 ZINC000745364361    0.1100
50     H50   -10.4739   -1.8249    2.1620 H        1 ZINC000745364361    0.1100
51     H51    -5.5322   -3.1331   -0.1878 H        1 ZINC000745364361    0.1300
52     H52    -3.1716   -2.4416   -0.1354 H        1 ZINC000745364361    0.1400
@<TRIPOS>BOND
1     1     2     1
2     1     32    1
3     1     33    1
4     1     34    1
5     2     3     1
6     2     4     1
7     2     17    1
8     4     5     1
9     5     6     2
10    5     7     1
11    7     8     1
12    7     9     1
13    7     10    1
14    9     35    1
15    9     36    1
16    9     37    1
17    10    16    ar
18    10    11    ar
19    11    12    ar
20    11    38    1
21    12    13    ar
22    12    39    1
23    13    14    ar
24    13    40    1
25    14    15    1
26    14    16    ar
27    16    41    1
28    17    18    2
29    17    19    am
30    19    20    1
31    19    42    1
32    20    31    ar
33    20    21    ar
34    21    22    ar
35    21    43    1
36    22    23    ar
37    22    44    1
38    23    24    1
39    23    30    ar
40    24    28    am
41    24    25    1
42    25    26    1
43    25    45    1
44    25    46    1
45    26    27    1
46    26    47    1
47    26    48    1
48    27    28    1
49    27    49    1
50    27    50    1
51    28    29    2
52    30    31    ar
53    30    51    1
54    31    52    1
@<TRIPOS>SUBSTRUCTURE
1   ZINC000745364361 1     RESIDUE    1   A     ZIN   1
@<TRIPOS>MOLECULE
ZINC001456096501
51	52	1	0	0
SMALL
USER_CHARGES
@<TRIPOS>ATOM
1      C1     -3.0086   -1.5701   -4.2146 C.3      1 ZINC001456096501    0.0400
2      O2     -2.2698   -2.4992   -3.4190 O.3      1 ZINC001456096501   -0.2900
3      C3     -1.1595   -3.0388   -3.9759 C.ar     1 ZINC001456096501    0.3700
4      N4     -0.8043   -2.6923   -5.2013 N.ar     1 ZINC001456096501   -0.5400
5      C5      0.2694   -3.1928   -5.7816 C.ar     1 ZINC001456096501    0.1600
6      C6      1.0754   -4.1079   -5.1290 C.ar     1 ZINC001456096501   -0.2200
7      C7      0.7506   -4.5063   -3.8442 C.ar     1 ZINC001456096501   -0.0200
8      C8     -0.3899   -3.9580   -3.2467 C.ar     1 ZINC001456096501   -0.2000
9      C9     -0.7819   -4.3472   -1.8787 C.2      1 ZINC001456096501    0.5900
10     O10    -1.1406   -3.4993   -1.0846 O.2      1 ZINC001456096501   -0.5100
11     N11    -0.7424   -5.6428   -1.5093 N.am     1 ZINC001456096501   -0.6200
12     C12    -0.2266   -6.7513   -2.3259 C.3      1 ZINC001456096501    0.1000
13     C13    -0.4074   -8.0465   -1.5066 C.3      1 ZINC001456096501   -0.1200
14     C14    -1.5317   -7.6706   -0.5057 C.3      1 ZINC001456096501   -0.1200
15     H15    -2.5147   -7.7753   -0.9649 H        1 ZINC001456096501    0.0900
16     C16    -1.4333   -8.5096    0.7700 C.3      1 ZINC001456096501    0.1200
17     N17    -2.5756   -8.2137    1.6383 N.am     1 ZINC001456096501   -0.6200
18     C18    -3.8106   -8.9919    1.5146 C.3      1 ZINC001456096501    0.0600
19     C19    -2.4902   -7.2257    2.5510 C.2      1 ZINC001456096501    0.5200
20     O20    -1.4367   -6.6509    2.7257 O.2      1 ZINC001456096501   -0.5300
21     C21    -3.7039   -6.8351    3.3543 C.3      1 ZINC001456096501   -0.0800
22     C22    -3.3006   -5.8225    4.4281 C.3      1 ZINC001456096501   -0.1300
23     C23    -4.7482   -6.2080    2.4285 C.3      1 ZINC001456096501   -0.1500
24     C24    -4.2953   -8.0782    4.0221 C.3      1 ZINC001456096501   -0.1700
25     C25    -1.2033   -6.1822   -0.2170 C.3      1 ZINC001456096501    0.1200
26     H26    -2.3704   -0.7251   -4.4732 H        1 ZINC001456096501    0.0600
27     H27    -3.3477   -2.0617   -5.1265 H        1 ZINC001456096501    0.0600
28     H28    -3.8713   -1.2147   -3.6511 H        1 ZINC001456096501    0.1000
29     H29     0.5234   -2.8828   -6.7844 H        1 ZINC001456096501    0.1700
30     H30     1.9509   -4.5086   -5.6183 H        1 ZINC001456096501    0.1500
31     H31     1.3642   -5.2198   -3.3143 H        1 ZINC001456096501    0.1500
32     H32    -0.7900   -6.8196   -3.2565 H        1 ZINC001456096501    0.0700
33     H33     0.8302   -6.5930   -2.5407 H        1 ZINC001456096501    0.0700
34     H34    -0.7223   -8.8686   -2.1494 H        1 ZINC001456096501    0.0900
35     H35     0.5114   -8.2995   -0.9775 H        1 ZINC001456096501    0.0800
36     H36    -1.4391   -9.5681    0.5100 H        1 ZINC001456096501    0.0800
37     H37    -0.5076   -8.2688    1.2927 H        1 ZINC001456096501    0.0900
38     H38    -3.7857   -9.8268    2.2149 H        1 ZINC001456096501    0.0600
39     H39    -4.6658   -8.3545    1.7394 H        1 ZINC001456096501    0.0900
40     H40    -3.8993   -9.3735    0.4974 H        1 ZINC001456096501    0.0700
41     H41    -2.8793   -4.9369    3.9524 H        1 ZINC001456096501    0.0600
42     H42    -4.1784   -5.5400    5.0091 H        1 ZINC001456096501    0.0600
43     H43    -2.5566   -6.2693    5.0876 H        1 ZINC001456096501    0.0600
44     H44    -4.9383   -6.8771    1.5893 H        1 ZINC001456096501    0.0700
45     H45    -5.6736   -6.0464    2.9813 H        1 ZINC001456096501    0.0700
46     H46    -4.3766   -5.2537    2.0553 H        1 ZINC001456096501    0.0600
47     H47    -3.5513   -8.5250    4.6817 H        1 ZINC001456096501    0.0600
48     H48    -5.1731   -7.7957    4.6032 H        1 ZINC001456096501    0.0700
49     H49    -4.5826   -8.7996    3.2571 H        1 ZINC001456096501    0.0800
50     H50    -0.4170   -6.1059    0.5340 H        1 ZINC001456096501    0.0800
51     H51    -2.0974   -5.6536    0.1136 H        1 ZINC001456096501    0.0700
@<TRIPOS>BOND
1     1     2     1
2     1     26    1
3     1     27    1
4     1     28    1
5     2     3     1
6     3     8     ar
7     3     4     ar
8     4     5     ar
9     5     6     ar
10    5     29    1
11    6     7     ar
12    6     30    1
13    7     8     ar
14    7     31    1
15    8     9     1
16    9     10    2
17    9     11    am
18    11    25    1
19    11    12    1
20    12    13    1
21    12    32    1
22    12    33    1
23    13    14    1
24    13    34    1
25    13    35    1
26    14    15    1
27    14    16    1
28    14    25    1
29    16    17    1
30    16    36    1
31    16    37    1
32    17    18    1
33    17    19    am
34    18    38    1
35    18    39    1
36    18    40    1
37    19    20    2
38    19    21    1
39    21    22    1
40    21    23    1
41    21    24    1
42    22    41    1
43    22    42    1
44    22    43    1
45    23    44    1
46    23    45    1
47    23    46    1
48    24    47    1
49    24    48    1
50    24    49    1
51    25    50    1
52    25    51    1
@<TRIPOS>SUBSTRUCTURE
1   ZINC001456096501 1     RESIDUE    1   A     ZIN   1
@<TRIPOS>MOLECULE
ZINC000549659617
53	55	1	0	0
SMALL
USER_CHARGES
@<TRIPOS>ATOM
1      C1     -0.0187    1.5258    0.0104 C.3      1 ZINC000549659617   -0.1500
2      C2      0.0021   -0.0041    0.0020 C.3      1 ZINC000549659617   -0.1500
3      C3     -1.4333   -0.5336    0.0129 C.3      1 ZINC000549659617    0.1100
4      N4     -1.4134   -1.9985    0.0048 N.am     1 ZINC000549659617   -0.6100
5      C5     -1.3932   -2.6786    1.1682 C.2      1 ZINC000549659617    0.7100
6      O6     -1.3767   -3.8943    1.1616 O.2      1 ZINC000549659617   -0.5700
7      N7     -1.3912   -2.0110    2.3391 N.am     1 ZINC000549659617   -0.7400
8      C8     -1.3691   -2.7503    3.6037 C.3      1 ZINC000549659617    0.2300
9      H9     -0.7684   -3.6523    3.4869 H        1 ZINC000549659617    0.1100
10     C10    -0.7701   -1.8840    4.6816 C.ar     1 ZINC000549659617   -0.0900
11     C11    -1.0852   -0.5396    4.7423 C.ar     1 ZINC000549659617   -0.0800
12     C12    -0.5357    0.2552    5.7312 C.ar     1 ZINC000549659617   -0.1100
13     C13     0.3283   -0.2948    6.6593 C.ar     1 ZINC000549659617   -0.0700
14     C14     0.6428   -1.6398    6.5991 C.ar     1 ZINC000549659617   -0.1800
15     C15     1.5852   -2.2393    7.6107 C.3      1 ZINC000549659617    0.5100
16     F16     2.0067   -1.2461    8.5013 F        1 ZINC000549659617   -0.1800
17     F17     0.9276   -3.2515    8.3181 F        1 ZINC000549659617   -0.1700
18     F18     2.6961   -2.7769    6.9519 F        1 ZINC000549659617   -0.1700
19     C19     0.0901   -2.4352    5.6131 C.ar     1 ZINC000549659617   -0.0500
20     C20    -2.7974   -3.1357    3.9941 C.3      1 ZINC000549659617   -0.1700
21     C21    -3.9335   -2.6358    3.0996 C.3      1 ZINC000549659617   -0.1700
22     C22    -3.5396   -4.1141    3.0815 C.3      1 ZINC000549659617   -0.1800
23     C23    -1.4156   -2.7241   -1.2679 C.3      1 ZINC000549659617    0.1700
24     H24    -1.4456   -2.0195   -2.0989 H        1 ZINC000549659617    0.1100
25     C25    -2.6285   -3.6687   -1.3338 C.3      1 ZINC000549659617   -0.1400
26     C26    -2.4264   -4.6519   -2.5039 C.3      1 ZINC000549659617   -0.5900
27     S27    -0.6131   -4.8080   -2.6867 S.o2     1 ZINC000549659617    2.3900
28     O28    -0.2115   -6.1150   -2.2996 O.2      1 ZINC000549659617   -0.9300
29     O29    -0.2212   -4.2929   -3.9518 O.2      1 ZINC000549659617   -0.9400
30     C30    -0.1515   -3.6156   -1.3730 C.3      1 ZINC000549659617   -0.6100
31     H31     1.0039    1.9031    0.0027 H        1 ZINC000549659617    0.0600
32     H32    -0.5459    1.8868   -0.8726 H        1 ZINC000549659617    0.0600
33     H33    -0.5289    1.8773    0.9072 H        1 ZINC000549659617    0.0600
34     H34     0.5123   -0.3556   -0.8948 H        1 ZINC000549659617    0.0700
35     H35     0.5293   -0.3651    0.8851 H        1 ZINC000549659617    0.0700
36     H36    -1.9435   -0.1821    0.9097 H        1 ZINC000549659617    0.0800
37     H37    -1.9605   -0.1726   -0.8702 H        1 ZINC000549659617    0.0900
38     H38    -1.4043   -1.0411    2.3444 H        1 ZINC000549659617    0.4000
39     H39    -1.7603   -0.1099    4.0171 H        1 ZINC000549659617    0.1300
40     H40    -0.7813    1.3058    5.7782 H        1 ZINC000549659617    0.1400
41     H41     0.7581    0.3262    7.4313 H        1 ZINC000549659617    0.1400
42     H42     0.3357   -3.4858    5.5661 H        1 ZINC000549659617    0.1400
43     H43    -2.9908   -3.2007    5.0648 H        1 ZINC000549659617    0.1100
44     H44    -4.8747   -2.3716    3.5819 H        1 ZINC000549659617    0.0900
45     H45    -3.6635   -2.0323    2.2330 H        1 ZINC000549659617    0.0900
46     H46    -3.0103   -4.4831    2.2030 H        1 ZINC000549659617    0.1200
47     H47    -4.2215   -4.8225    3.5518 H        1 ZINC000549659617    0.0900
48     H48    -2.7122   -4.2235   -0.3993 H        1 ZINC000549659617    0.1100
49     H49    -3.5368   -3.0882   -1.4957 H        1 ZINC000549659617    0.0900
50     H50    -2.8675   -5.6198   -2.2656 H        1 ZINC000549659617    0.1400
51     H51    -2.8655   -4.2494   -3.4167 H        1 ZINC000549659617    0.1400
52     H52     0.7151   -3.0262   -1.6725 H        1 ZINC000549659617    0.1400
53     H53     0.0368   -4.1313   -0.4313 H        1 ZINC000549659617    0.1600
@<TRIPOS>BOND
1     1     2     1
2     1     31    1
3     1     32    1
4     1     33    1
5     2     3     1
6     2     34    1
7     2     35    1
8     3     4     1
9     3     36    1
10    3     37    1
11    4     5     am
12    4     23    1
13    5     6     2
14    5     7     am
15    7     8     1
16    7     38    1
17    8     9     1
18    8     10    1
19    8     20    1
20    10    19    ar
21    10    11    ar
22    11    12    ar
23    11    39    1
24    12    13    ar
25    12    40    1
26    13    14    ar
27    13    41    1
28    14    15    1
29    14    19    ar
30    15    16    1
31    15    17    1
32    15    18    1
33    19    42    1
34    20    22    1
35    20    21    1
36    20    43    1
37    21    22    1
38    21    44    1
39    21    45    1
40    22    46    1
41    22    47    1
42    23    24    1
43    23    30    1
44    23    25    1
45    25    26    1
46    25    48    1
47    25    49    1
48    26    27    1
49    26    50    1
50    26    51    1
51    27    28    2
52    27    29    2
53    27    30    1
54    30    52    1
55    30    53    1
@<TRIPOS>SUBSTRUCTURE
1   ZINC000549659617 1     RESIDUE    1   A     ZIN   1
@<TRIPOS>MOLECULE
ZINC001002468398
45	47	1	0	0
SMALL
USER_CHARGES
@<TRIPOS>ATOM
1      C1      0.4203    2.0919   -0.0368 C.3      1 ZINC001002468398   -0.1400
2      C2      0.2279    0.5756    0.0321 C.3      1 ZINC001002468398   -0.0500
3      C3      0.7978   -0.0600   -1.2098 C.2      1 ZINC001002468398    0.0500
4      C4      2.0720   -0.5070   -1.3791 C.2      1 ZINC001002468398   -0.0800
5      C5      3.1562   -0.4609   -0.3814 C.2      1 ZINC001002468398    0.6000
6      O6      2.9730    0.0828    0.6909 O.2      1 ZINC001002468398   -0.5300
7      N7      4.3505   -1.0212   -0.6575 N.am     1 ZINC001002468398   -0.6000
8      C8      4.6025   -1.5927   -1.9827 C.3      1 ZINC001002468398    0.0900
9      C9      5.3965   -1.0587    0.3674 C.3      1 ZINC001002468398    0.1000
10     C10     5.3358   -2.3954    1.1093 C.3      1 ZINC001002468398    0.1300
11     H11     5.3884   -3.2179    0.3960 H        1 ZINC001002468398    0.0800
12     C12     4.0259   -2.4867    1.9201 C.3      1 ZINC001002468398   -0.1300
13     C13     4.4745   -3.1928    3.2268 C.3      1 ZINC001002468398   -0.1300
14     C14     5.8936   -2.6048    3.4267 C.3      1 ZINC001002468398    0.1000
15     N15     6.4507   -2.4890    2.0632 N.am     1 ZINC001002468398   -0.6100
16     C16     7.7612   -2.4704    1.7491 C.2      1 ZINC001002468398    0.5600
17     O17     8.1075   -2.2730    0.6036 O.2      1 ZINC001002468398   -0.5100
18     C18     8.7963   -2.6947    2.8212 C.3      1 ZINC001002468398   -0.2000
19     H19     8.5141   -3.3941    3.6081 H        1 ZINC001002468398    0.1500
20     C20     9.6751   -1.5057    3.2146 C.3      1 ZINC001002468398   -0.1500
21     C21    10.2672   -2.6596    2.4015 C.3      1 ZINC001002468398    0.2300
22     F22    11.1471   -3.5272    3.0574 F        1 ZINC001002468398   -0.1500
23     F23    10.5484   -2.4212    1.0519 F        1 ZINC001002468398   -0.1400
24     N24     2.1567   -1.0051   -2.6426 N.2      1 ZINC001002468398   -0.4600
25     C25     0.9988   -0.8710   -3.2166 C.2      1 ZINC001002468398    0.1700
26     O26     0.1436   -0.2983   -2.3577 O.3      1 ZINC001002468398   -0.2000
27     H27     1.4838    2.3204   -0.1065 H        1 ZINC001002468398    0.0600
28     H28    -0.0939    2.4839   -0.9143 H        1 ZINC001002468398    0.0600
29     H29     0.0081    2.5516    0.8615 H        1 ZINC001002468398    0.0700
30     H30     0.7420    0.1836    0.9096 H        1 ZINC001002468398    0.1200
31     H31    -0.8356    0.3471    0.1018 H        1 ZINC001002468398    0.0900
32     H32     4.5514   -0.8046   -2.7340 H        1 ZINC001002468398    0.0700
33     H33     5.5931   -2.0473   -1.9999 H        1 ZINC001002468398    0.0700
34     H34     3.8508   -2.3514   -2.2002 H        1 ZINC001002468398    0.0700
35     H35     6.3726   -0.9496   -0.1054 H        1 ZINC001002468398    0.0900
36     H36     5.2420   -0.2435    1.0743 H        1 ZINC001002468398    0.0900
37     H37     3.6346   -1.4921    2.1340 H        1 ZINC001002468398    0.1000
38     H38     3.2862   -3.0878    1.3913 H        1 ZINC001002468398    0.0800
39     H39     3.8212   -2.9279    4.0581 H        1 ZINC001002468398    0.0900
40     H40     4.5148   -4.2738    3.0928 H        1 ZINC001002468398    0.0800
41     H41     5.8349   -1.6239    3.8984 H        1 ZINC001002468398    0.0800
42     H42     6.5028   -3.2799    4.0278 H        1 ZINC001002468398    0.0800
43     H43     9.5046   -0.5611    2.6980 H        1 ZINC001002468398    0.1300
44     H44     9.9714   -1.4230    4.2603 H        1 ZINC001002468398    0.1400
45     H45     0.7616   -1.1767   -4.2249 H        1 ZINC001002468398    0.2600
@<TRIPOS>BOND
1     1     2     1
2     1     27    1
3     1     28    1
4     1     29    1
5     2     3     1
6     2     30    1
7     2     31    1
8     3     26    1
9     3     4     2
10    4     5     1
11    4     24    1
12    5     6     2
13    5     7     am
14    7     8     1
15    7     9     1
16    8     32    1
17    8     33    1
18    8     34    1
19    9     10    1
20    9     35    1
21    9     36    1
22    10    11    1
23    10    15    1
24    10    12    1
25    12    13    1
26    12    37    1
27    12    38    1
28    13    14    1
29    13    39    1
30    13    40    1
31    14    15    1
32    14    41    1
33    14    42    1
34    15    16    am
35    16    17    2
36    16    18    1
37    18    19    1
38    18    21    1
39    18    20    1
40    20    21    1
41    20    43    1
42    20    44    1
43    21    22    1
44    21    23    1
45    24    25    2
46    25    26    1
47    25    45    1
@<TRIPOS>SUBSTRUCTURE
1   ZINC001002468398 1     RESIDUE    1   A     ZIN   1
@<TRIPOS>MOLECULE
ZINC000561219098
45	48	1	0	0
SMALL
USER_CHARGES
@<TRIPOS>ATOM
1      C1      0.2817    1.5448    0.3344 C.3      1 ZINC000561219098    0.0700
2      N2      0.4179    0.0867    0.2952 N.pl3    1 ZINC000561219098   -0.4500
3      C3      0.9494   -0.6321   -0.7351 C.2      1 ZINC000561219098   -0.0100
4      C4      0.9066   -1.9383   -0.4117 C.2      1 ZINC000561219098   -0.1700
5      C5      0.3228   -2.0360    0.8765 C.2      1 ZINC000561219098   -0.1100
6      C6      0.0741   -3.2854    1.6401 C.2      1 ZINC000561219098    0.1600
7      N7     -0.5572   -3.3700    2.7928 N.2      1 ZINC000561219098   -0.2700
8      N8     -0.5888   -4.7124    3.1899 N.pl3    1 ZINC000561219098   -0.4700
9      C9      0.0502   -5.4497    2.2320 C.2      1 ZINC000561219098    0.0300
10     C10     0.2508   -6.9079    2.2424 C.2      1 ZINC000561219098    0.5900
11     O11     0.3582   -7.5145    1.1937 O.2      1 ZINC000561219098   -0.5000
12     N12     0.3154   -7.5708    3.4140 N.am     1 ZINC000561219098   -0.6100
13     C13     0.1731   -6.8608    4.6950 C.3      1 ZINC000561219098    0.0500
14     C14     1.3419   -7.2615    5.6024 C.3      1 ZINC000561219098    0.0500
15     O15     1.4165   -8.6875    5.6718 O.3      1 ZINC000561219098   -0.3700
16     C16     1.6814   -9.3214    4.4181 C.3      1 ZINC000561219098    0.1200
17     H17     2.6129   -8.9351    4.0044 H        1 ZINC000561219098    0.0900
18     C18     1.8000  -10.8098    4.6218 C.ar     1 ZINC000561219098   -0.0500
19     C19     1.1697  -11.4126    5.6937 C.ar     1 ZINC000561219098   -0.1000
20     C20     1.2781  -12.7800    5.8809 C.ar     1 ZINC000561219098    0.1200
21     F21     0.6617  -13.3697    6.9285 F        1 ZINC000561219098   -0.1200
22     C22     2.0187  -13.5434    4.9931 C.ar     1 ZINC000561219098   -0.0600
23     Cl23    2.1551  -15.2583    5.2263 Cl       1 ZINC000561219098   -0.0300
24     C24     2.6490  -12.9387    3.9208 C.ar     1 ZINC000561219098   -0.0700
25     C25     2.5354  -11.5731    3.7321 C.ar     1 ZINC000561219098   -0.0300
26     Cl26    3.3262  -10.8145    2.3857 Cl       1 ZINC000561219098   -0.0400
27     C27     0.5243   -9.0270    3.4499 C.3      1 ZINC000561219098    0.0900
28     C28     0.4665   -4.5746    1.2522 C.2      1 ZINC000561219098   -0.1700
29     C29     0.0395   -0.7703    1.2842 C.2      1 ZINC000561219098    0.0300
30     H30     1.1815    1.9823    0.7670 H        1 ZINC000561219098    0.0800
31     H31     0.1438    1.9242   -0.6781 H        1 ZINC000561219098    0.0900
32     H32    -0.5816    1.8129    0.9435 H        1 ZINC000561219098    0.0900
33     H33     1.3389   -0.2223   -1.6553 H        1 ZINC000561219098    0.1700
34     H34     1.2531   -2.7599   -1.0211 H        1 ZINC000561219098    0.1400
35     H35    -0.9921   -5.0581    4.0015 H        1 ZINC000561219098    0.4400
36     H36     0.1943   -5.7847    4.5226 H        1 ZINC000561219098    0.1000
37     H37    -0.7696   -7.1391    5.1662 H        1 ZINC000561219098    0.0900
38     H38     2.2722   -6.8677    5.1930 H        1 ZINC000561219098    0.0700
39     H39     1.1826   -6.8562    6.6016 H        1 ZINC000561219098    0.1200
40     H40     0.5928  -10.8168    6.3856 H        1 ZINC000561219098    0.1600
41     H41     3.2268  -13.5332    3.2286 H        1 ZINC000561219098    0.1600
42     H42    -0.3809   -9.5248    3.7975 H        1 ZINC000561219098    0.0900
43     H43     0.7804   -9.3843    2.4524 H        1 ZINC000561219098    0.1100
44     H44     1.0039   -4.8339    0.3520 H        1 ZINC000561219098    0.1600
45     H45    -0.4133   -0.4933    2.2248 H        1 ZINC000561219098    0.1700
@<TRIPOS>BOND
1     1     2     1
2     1     30    1
3     1     31    1
4     1     32    1
5     2     29    1
6     2     3     1
7     3     4     2
8     3     33    1
9     4     5     1
10    4     34    1
11    5     6     1
12    5     29    2
13    6     28    1
14    6     7     2
15    7     8     1
16    8     9     1
17    8     35    1
18    9     10    1
19    9     28    2
20    10    11    2
21    10    12    am
22    12    27    1
23    12    13    1
24    13    14    1
25    13    36    1
26    13    37    1
27    14    15    1
28    14    38    1
29    14    39    1
30    15    16    1
31    16    17    1
32    16    18    1
33    16    27    1
34    18    25    ar
35    18    19    ar
36    19    20    ar
37    19    40    1
38    20    21    1
39    20    22    ar
40    22    23    1
41    22    24    ar
42    24    25    ar
43    24    41    1
44    25    26    1
45    27    42    1
46    27    43    1
47    28    44    1
48    29    45    1
@<TRIPOS>SUBSTRUCTURE
1   ZINC000561219098 1     RESIDUE    1   A     ZIN   1
@<TRIPOS>MOLECULE
ZINC000552360217
54	54	1	0	0
SMALL
USER_CHARGES
@<TRIPOS>ATOM
1      C1     -0.0178    1.4608    0.0101 C.3      1 ZINC000552360217    0.0800
2      N2      0.0021   -0.0041    0.0020 N.am     1 ZINC000552360217   -1.0000
3      C3      0.0241   -0.7433    1.2666 C.3      1 ZINC000552360217    0.0900
4      S4     -0.0004   -0.8243   -1.4366 S.o2     1 ZINC000552360217    2.7000
5      O5     -0.5247   -2.1160   -1.1611 O.2      1 ZINC000552360217   -0.9500
6      O6     -0.5660    0.0551   -2.3989 O.2      1 ZINC000552360217   -0.9500
7      C7      1.6816   -1.0597   -1.9056 C.ar     1 ZINC000552360217   -0.6900
8      C8      2.3224   -0.1078   -2.6783 C.ar     1 ZINC000552360217    0.0100
9      C9      3.6434   -0.2848   -3.0506 C.ar     1 ZINC000552360217   -0.1400
10     C10     4.3300   -1.4131   -2.6529 C.ar     1 ZINC000552360217   -0.0300
11     C11     3.6893   -2.3775   -1.8731 C.ar     1 ZINC000552360217   -0.1600
12     C12     4.4192   -3.5891   -1.4429 C.2      1 ZINC000552360217    0.5600
13     O13     3.8588   -4.4273   -0.7639 O.2      1 ZINC000552360217   -0.5300
14     N14     5.7059   -3.7643   -1.8035 N.am     1 ZINC000552360217   -0.7100
15     C15     6.4292   -4.9649   -1.3772 C.3      1 ZINC000552360217    0.1000
16     C16     7.8386   -4.9175   -1.9086 C.2      1 ZINC000552360217    0.5100
17     O17     8.2030   -3.9739   -2.5777 O.2      1 ZINC000552360217   -0.5400
18     N18     8.6941   -5.9239   -1.6405 N.am     1 ZINC000552360217   -0.7200
19     C19    10.0642   -5.8779   -2.1572 C.3      1 ZINC000552360217    0.1400
20     C20    10.8195   -7.1317   -1.7119 C.3      1 ZINC000552360217    0.1000
21     C21    12.2832   -7.0259   -2.1447 C.3      1 ZINC000552360217   -0.1800
22     C22    10.7458   -7.2576   -0.1889 C.3      1 ZINC000552360217   -0.1800
23     O23    10.2268   -8.2840   -2.3144 O.3      1 ZINC000552360217   -0.3700
24     C24    10.8607   -9.5152   -1.9620 C.3      1 ZINC000552360217    0.0600
25     C25    10.1471  -10.6745   -2.6603 C.3      1 ZINC000552360217    0.0800
26     O26    10.3145  -10.5543   -4.0744 O.3      1 ZINC000552360217   -0.5700
27     C27     2.3585   -2.1904   -1.4967 C.ar     1 ZINC000552360217    0.0400
28     H28     1.0048    1.8381    0.0023 H        1 ZINC000552360217    0.0600
29     H29    -0.5450    1.8219   -0.8730 H        1 ZINC000552360217    0.0900
30     H30    -0.5280    1.8123    0.9069 H        1 ZINC000552360217    0.0800
31     H31     0.0224   -0.0395    2.0990 H        1 ZINC000552360217    0.0800
32     H32    -0.8567   -1.3823    1.3294 H        1 ZINC000552360217    0.0700
33     H33     0.9230   -1.3581    1.3125 H        1 ZINC000552360217    0.0600
34     H34     1.7892    0.7773   -2.9926 H        1 ZINC000552360217    0.1500
35     H35     4.1377    0.4620   -3.6542 H        1 ZINC000552360217    0.1400
36     H36     5.3608   -1.5502   -2.9444 H        1 ZINC000552360217    0.1400
37     H37     6.1532   -3.0955   -2.3453 H        1 ZINC000552360217    0.4100
38     H38     6.4528   -5.0074   -0.2882 H        1 ZINC000552360217    0.1000
39     H39     5.9244   -5.8499   -1.7645 H        1 ZINC000552360217    0.1000
40     H40     8.4026   -6.6786   -1.1054 H        1 ZINC000552360217    0.4100
41     H41    10.0406   -5.8354   -3.2461 H        1 ZINC000552360217    0.0800
42     H42    10.5690   -4.9928   -1.7699 H        1 ZINC000552360217    0.0900
43     H43    12.7353   -6.1470   -1.6851 H        1 ZINC000552360217    0.0700
44     H44    12.8213   -7.9192   -1.8275 H        1 ZINC000552360217    0.0700
45     H45    12.3358   -6.9362   -3.2297 H        1 ZINC000552360217    0.0700
46     H46     9.7030   -7.3330    0.1194 H        1 ZINC000552360217    0.0600
47     H47    11.2839   -8.1509    0.1283 H        1 ZINC000552360217    0.0700
48     H48    11.1979   -6.3787    0.2706 H        1 ZINC000552360217    0.0700
49     H49    11.9044   -9.4893   -2.2754 H        1 ZINC000552360217    0.0600
50     H50    10.8090   -9.6544   -0.8821 H        1 ZINC000552360217    0.0700
51     H51    10.5731  -11.6194   -2.3230 H        1 ZINC000552360217    0.0600
52     H52     9.0851  -10.6471   -2.4165 H        1 ZINC000552360217    0.0500
53     H53     9.8870  -11.2575   -4.5822 H        1 ZINC000552360217    0.3800
54     H54     1.8572   -2.9328   -0.8935 H        1 ZINC000552360217    0.1500
@<TRIPOS>BOND
1     1     2     1
2     1     28    1
3     1     29    1
4     1     30    1
5     2     3     1
6     2     4     am
7     3     31    1
8     3     32    1
9     3     33    1
10    4     5     2
11    4     6     2
12    4     7     1
13    7     27    ar
14    7     8     ar
15    8     9     ar
16    8     34    1
17    9     10    ar
18    9     35    1
19    10    11    ar
20    10    36    1
21    11    12    1
22    11    27    ar
23    12    13    2
24    12    14    am
25    14    15    1
26    14    37    1
27    15    16    1
28    15    38    1
29    15    39    1
30    16    17    2
31    16    18    am
32    18    19    1
33    18    40    1
34    19    20    1
35    19    41    1
36    19    42    1
37    20    21    1
38    20    22    1
39    20    23    1
40    21    43    1
41    21    44    1
42    21    45    1
43    22    46    1
44    22    47    1
45    22    48    1
46    23    24    1
47    24    25    1
48    24    49    1
49    24    50    1
50    25    26    1
51    25    51    1
52    25    52    1
53    26    53    1
54    27    54    1
@<TRIPOS>SUBSTRUCTURE
1   ZINC000552360217 1     RESIDUE    1   A     ZIN   1
@<TRIPOS>MOLECULE
ZINC000788423111
35	37	1	0	0
SMALL
USER_CHARGES
@<TRIPOS>ATOM
1      O1     -0.0173    1.4248    0.0099 O.3      1 ZINC000788423111   -0.5400
2      C2      0.0021   -0.0041    0.0020 C.3      1 ZINC000788423111    0.1000
3      H3     -1.0205   -0.3814    0.0098 H        1 ZINC000788423111    0.1300
4      C4      0.7421   -0.5109    1.2415 C.3      1 ZINC000788423111    0.0300
5      O5      0.0101   -0.1492    2.4144 O.3      1 ZINC000788423111   -0.2900
6      C6      0.5346   -0.5268    3.6098 C.ar     1 ZINC000788423111    0.1700
7      C7      1.7315   -1.2258    3.6531 C.ar     1 ZINC000788423111   -0.2400
8      C8      2.2637   -1.6095    4.8716 C.ar     1 ZINC000788423111    0.1500
9      F9      3.4297   -2.2905    4.9150 F        1 ZINC000788423111   -0.1300
10     C10     1.6017   -1.2951    6.0463 C.ar     1 ZINC000788423111   -0.1600
11     C11     0.4074   -0.5982    6.0039 C.ar     1 ZINC000788423111   -0.0300
12     Br12   -0.4943   -0.1704    7.6101 Br       1 ZINC000788423111   -0.0200
13     C13    -0.1241   -0.2085    4.7889 C.ar     1 ZINC000788423111   -0.1300
14     C14     0.7182   -0.4975   -1.2568 C.3      1 ZINC000788423111    0.1000
15     N15    -0.0549   -0.1139   -2.4405 N.pl3    1 ZINC000788423111   -0.1300
16     N16    -0.9818   -0.8216   -2.9855 N.2      1 ZINC000788423111   -0.0500
17     N17    -1.4506   -0.1859   -4.0052 N.2      1 ZINC000788423111   -0.2600
18     C18    -0.7797    0.9729   -4.0947 C.2      1 ZINC000788423111    0.2400
19     C19    -0.9734    2.0303   -5.1108 C.2      1 ZINC000788423111   -0.1300
20     C20    -1.8718    1.9900   -6.1140 C.2      1 ZINC000788423111   -0.0800
21     C21    -1.8663    3.0967   -6.9381 C.2      1 ZINC000788423111   -0.1400
22     C22    -0.9735    4.0372   -6.6167 C.2      1 ZINC000788423111   -0.2000
23     S23    -0.0716    3.5383   -5.1918 S.3      1 ZINC000788423111    0.1700
24     N24     0.0828    0.9873   -3.0957 N.2      1 ZINC000788423111   -0.2900
25     H25     0.8606    1.8301    0.0037 H        1 ZINC000788423111    0.3800
26     H26     0.8346   -1.5958    1.1912 H        1 ZINC000788423111    0.0900
27     H27     1.7350   -0.0630    1.2804 H        1 ZINC000788423111    0.0800
28     H28     2.2477   -1.4709    2.7366 H        1 ZINC000788423111    0.1500
29     H29     2.0180   -1.5946    6.9968 H        1 ZINC000788423111    0.1500
30     H30    -1.0563    0.3358    4.7567 H        1 ZINC000788423111    0.1500
31     H31     1.7103   -0.0491   -1.3098 H        1 ZINC000788423111    0.1300
32     H32     0.8116   -1.5829   -1.2198 H        1 ZINC000788423111    0.1300
33     H33    -2.5430    1.1570   -6.2618 H        1 ZINC000788423111    0.1500
34     H34    -2.5343    3.1952   -7.7810 H        1 ZINC000788423111    0.1500
35     H35    -0.8304    4.9659   -7.1490 H        1 ZINC000788423111    0.1700
@<TRIPOS>BOND
1     1     2     1
2     1     25    1
3     2     3     1
4     2     4     1
5     2     14    1
6     4     5     1
7     4     26    1
8     4     27    1
9     5     6     1
10    6     13    ar
11    6     7     ar
12    7     8     ar
13    7     28    1
14    8     9     1
15    8     10    ar
16    10    11    ar
17    10    29    1
18    11    12    1
19    11    13    ar
20    13    30    1
21    14    15    1
22    14    31    1
23    14    32    1
24    15    24    1
25    15    16    1
26    16    17    2
27    17    18    1
28    18    19    1
29    18    24    2
30    19    23    1
31    19    20    2
32    20    21    1
33    20    33    1
34    21    22    2
35    21    34    1
36    22    23    1
37    22    35    1
@<TRIPOS>SUBSTRUCTURE
1   ZINC000788423111 1     RESIDUE    1   A     ZIN   1
@<TRIPOS>MOLECULE
ZINC000426607143
40	43	1	0	0
SMALL
USER_CHARGES
@<TRIPOS>ATOM
1      C1     -0.0184    1.5028    0.0103 C.3      1 ZINC000426607143   -0.0900
2      C2      0.0021   -0.0041    0.0020 C.2      1 ZINC000426607143    0.1600
3      N3      0.0062   -0.6777   -1.1073 N.2      1 ZINC000426607143   -0.4600
4      S4      0.0303   -2.3242   -0.7040 S.3      1 ZINC000426607143    0.2900
5      C5      0.0349   -2.0888    1.0001 C.2      1 ZINC000426607143   -0.1300
6      C6      0.0546   -3.1521    2.0679 C.3      1 ZINC000426607143   -0.0800
7      C7      0.0232   -0.7376    1.1808 C.2      1 ZINC000426607143   -0.1200
8      C8      0.0232   -0.1051    2.5223 C.2      1 ZINC000426607143    0.2500
9      N9      0.0395   -0.7259    3.6738 N.2      1 ZINC000426607143   -0.3700
10     O10     0.0346    0.0790    4.5811 O.3      1 ZINC000426607143    0.0900
11     C11     0.0142    1.3222    4.0905 C.2      1 ZINC000426607143    0.2000
12     C12     0.0020    2.5997    4.8897 C.3      1 ZINC000426607143   -0.0300
13     H13    -0.0015    3.4640    4.2257 H        1 ZINC000426607143    0.1600
14     C14    -1.2231    2.6366    5.8325 C.3      1 ZINC000426607143   -0.1200
15     C15    -0.6389    3.3340    7.0810 C.3      1 ZINC000426607143    0.1000
16     N16     0.8025    3.0598    7.0442 N.am     1 ZINC000426607143   -0.5800
17     C17     1.6622    3.2052    8.1390 C.ar     1 ZINC000426607143    0.1700
18     C18     1.8850    2.1357    8.9954 C.ar     1 ZINC000426607143   -0.1000
19     C19     2.7342    2.2823   10.0753 C.ar     1 ZINC000426607143   -0.1000
20     C20     3.3617    3.4928   10.3042 C.ar     1 ZINC000426607143   -0.1000
21     C21     3.1423    4.5607    9.4533 C.ar     1 ZINC000426607143   -0.0900
22     C22     2.2991    4.4190    8.3680 C.ar     1 ZINC000426607143   -0.0800
23     Br23    1.9994    5.8796    7.2049 Br       1 ZINC000426607143   -0.0400
24     C24     1.1927    2.6526    5.8215 C.2      1 ZINC000426607143    0.5300
25     O25     2.3309    2.3669    5.5148 O.2      1 ZINC000426607143   -0.4900
26     N26     0.0121    1.2217    2.7846 N.2      1 ZINC000426607143   -0.4600
27     H27     1.0042    1.8801    0.0026 H        1 ZINC000426607143    0.0900
28     H28    -0.5455    1.8639   -0.8728 H        1 ZINC000426607143    0.0800
29     H29    -0.5286    1.8543    0.9071 H        1 ZINC000426607143    0.1100
30     H30     0.0657   -4.1366    1.6002 H        1 ZINC000426607143    0.0800
31     H31     0.9460   -3.0322    2.6835 H        1 ZINC000426607143    0.0900
32     H32    -0.8338   -3.0564    2.6922 H        1 ZINC000426607143    0.0900
33     H33    -2.0313    3.2256    5.3990 H        1 ZINC000426607143    0.1100
34     H34    -1.5618    1.6285    6.0715 H        1 ZINC000426607143    0.1000
35     H35    -0.8199    4.4078    7.0325 H        1 ZINC000426607143    0.0900
36     H36    -1.0792    2.9170    7.9867 H        1 ZINC000426607143    0.0900
37     H37     1.3948    1.1899    8.8179 H        1 ZINC000426607143    0.1400
38     H38     2.9077    1.4504   10.7417 H        1 ZINC000426607143    0.1400
39     H39     4.0244    3.6047   11.1496 H        1 ZINC000426607143    0.1400
40     H40     3.6340    5.5050    9.6349 H        1 ZINC000426607143    0.1400
@<TRIPOS>BOND
1     1     2     1
2     1     27    1
3     1     28    1
4     1     29    1
5     2     7     1
6     2     3     2
7     3     4     1
8     4     5     1
9     5     6     1
10    5     7     2
11    6     30    1
12    6     31    1
13    6     32    1
14    7     8     1
15    8     26    1
16    8     9     2
17    9     10    1
18    10    11    1
19    11    12    1
20    11    26    2
21    12    13    1
22    12    24    1
23    12    14    1
24    14    15    1
25    14    33    1
26    14    34    1
27    15    16    1
28    15    35    1
29    15    36    1
30    16    17    1
31    16    24    am
32    17    22    ar
33    17    18    ar
34    18    19    ar
35    18    37    1
36    19    20    ar
37    19    38    1
38    20    21    ar
39    20    39    1
40    21    22    ar
41    21    40    1
42    22    23    1
43    24    25    2
@<TRIPOS>SUBSTRUCTURE
1   ZINC000426607143 1     RESIDUE    1   A     ZIN   1
@<TRIPOS>MOLECULE
ZINC000123469372
45	47	1	0	0
SMALL
USER_CHARGES
@<TRIPOS>ATOM
1      C1     -0.0187    1.5258    0.0104 C.3      1 ZINC000123469372   -0.1700
2      C2      0.0021   -0.0041    0.0020 C.3      1 ZINC000123469372    0.1500
3      H3      0.5123   -0.3556   -0.8948 H        1 ZINC000123469372    0.0900
4      C4      0.7421   -0.5109    1.2415 C.3      1 ZINC000123469372   -0.1600
5      C5      0.8719   -2.0337    1.1708 C.3      1 ZINC000123469372    0.1500
6      H6      1.3517   -2.3143    0.2332 H        1 ZINC000123469372    0.1100
7      O7     -0.4268   -2.6262    1.2373 O.3      1 ZINC000123469372   -0.5500
8      C8      1.7061   -2.5210    2.3275 C.ar     1 ZINC000123469372   -0.1200
9      C9      1.1135   -2.7664    3.5520 C.ar     1 ZINC000123469372   -0.1100
10     C10     1.8787   -3.2134    4.6130 C.ar     1 ZINC000123469372   -0.1200
11     C11     3.2364   -3.4153    4.4493 C.ar     1 ZINC000123469372   -0.1200
12     C12     3.8288   -3.1708    3.2245 C.ar     1 ZINC000123469372   -0.1200
13     C13     3.0629   -2.7279    2.1623 C.ar     1 ZINC000123469372   -0.1100
14     N14    -1.3723   -0.5112    0.0124 N.am     1 ZINC000123469372   -0.7100
15     C15    -2.0508   -0.6427   -1.1446 C.2      1 ZINC000123469372    0.5700
16     O16    -1.5217   -0.3402   -2.1983 O.2      1 ZINC000123469372   -0.5400
17     C17    -3.4228   -1.1489   -1.1343 C.2      1 ZINC000123469372   -0.2200
18     C18    -4.1062   -1.2877   -2.2971 C.2      1 ZINC000123469372    0.0000
19     C19    -5.4900   -1.7823   -2.2269 C.ar     1 ZINC000123469372   -0.1200
20     C20    -6.1480   -2.2664   -3.3566 C.ar     1 ZINC000123469372   -0.0900
21     C21    -7.4482   -2.7206   -3.2442 C.ar     1 ZINC000123469372    0.0700
22     F22    -8.0926   -3.1916   -4.3342 F        1 ZINC000123469372   -0.1400
23     C23    -8.0946   -2.6957   -2.0171 C.ar     1 ZINC000123469372   -0.1100
24     C24    -7.4498   -2.2169   -0.8913 C.ar     1 ZINC000123469372   -0.1200
25     C25    -6.1484   -1.7586   -0.9850 C.ar     1 ZINC000123469372    0.1300
26     O26    -5.4895   -1.2826    0.1006 O.3      1 ZINC000123469372   -0.3000
27     C27    -4.0809   -1.5243    0.1679 C.3      1 ZINC000123469372    0.1100
28     H28     1.0039    1.9031    0.0027 H        1 ZINC000123469372    0.0700
29     H29    -0.5459    1.8868   -0.8726 H        1 ZINC000123469372    0.0600
30     H30    -0.5289    1.8773    0.9072 H        1 ZINC000123469372    0.0600
31     H31     1.7350   -0.0630    1.2804 H        1 ZINC000123469372    0.0900
32     H32     0.1838   -0.2350    2.1361 H        1 ZINC000123469372    0.0800
33     H33    -0.9128   -2.4185    2.0471 H        1 ZINC000123469372    0.3700
34     H34     0.0528   -2.6086    3.6799 H        1 ZINC000123469372    0.1200
35     H35     1.4158   -3.4044    5.5699 H        1 ZINC000123469372    0.1200
36     H36     3.8343   -3.7638    5.2784 H        1 ZINC000123469372    0.1200
37     H37     4.8896   -3.3283    3.0967 H        1 ZINC000123469372    0.1200
38     H38     3.5257   -2.5369    1.2054 H        1 ZINC000123469372    0.1200
39     H39    -1.7940   -0.7522    0.8520 H        1 ZINC000123469372    0.4000
40     H40    -3.6494   -1.0427   -3.2446 H        1 ZINC000123469372    0.1500
41     H41    -5.6455   -2.2859   -4.3124 H        1 ZINC000123469372    0.1500
42     H42    -9.1108   -3.0531   -1.9403 H        1 ZINC000123469372    0.1500
43     H43    -7.9617   -2.2009    0.0595 H        1 ZINC000123469372    0.1500
44     H44    -3.9059   -2.5797    0.3764 H        1 ZINC000123469372    0.0800
45     H45    -3.6505   -0.9254    0.9706 H        1 ZINC000123469372    0.1100
@<TRIPOS>BOND
1     1     2     1
2     1     28    1
3     1     29    1
4     1     30    1
5     2     3     1
6     2     4     1
7     2     14    1
8     4     5     1
9     4     31    1
10    4     32    1
11    5     6     1
12    5     7     1
13    5     8     1
14    7     33    1
15    8     13    ar
16    8     9     ar
17    9     10    ar
18    9     34    1
19    10    11    ar
20    10    35    1
21    11    12    ar
22    11    36    1
23    12    13    ar
24    12    37    1
25    13    38    1
26    14    15    am
27    14    39    1
28    15    16    2
29    15    17    1
30    17    27    1
31    17    18    2
32    18    19    1
33    18    40    1
34    19    25    ar
35    19    20    ar
36    20    21    ar
37    20    41    1
38    21    22    1
39    21    23    ar
40    23    24    ar
41    23    42    1
42    24    25    ar
43    24    43    1
44    25    26    1
45    26    27    1
46    27    44    1
47    27    45    1
@<TRIPOS>SUBSTRUCTURE
1   ZINC000123469372 1     RESIDUE    1   A     ZIN   1
@<TRIPOS>MOLECULE
ZINC000020646552
57	60	1	0	0
SMALL
USER_CHARGES
@<TRIPOS>ATOM
1      C1     -0.0178    1.4648    0.0101 C.3      1 ZINC000020646552    0.0200
2      N2      0.0021   -0.0041    0.0020 N.3      1 ZINC000020646552   -0.5400
3      C3     -1.3591   -0.5485   -0.0908 C.3      1 ZINC000020646552    0.0400
4      C4     -1.2864   -2.0676   -0.2787 C.3      1 ZINC000020646552    0.1200
5      N5     -0.4627   -2.6330    0.8007 N.am     1 ZINC000020646552   -0.6100
6      C6     -0.9112   -3.6622    1.5465 C.2      1 ZINC000020646552    0.5300
7      O7     -2.0073   -4.1345    1.3314 O.2      1 ZINC000020646552   -0.5200
8      C8     -0.0505   -4.2261    2.6475 C.3      1 ZINC000020646552   -0.1500
9      S9     -0.9243   -5.5879    3.4588 S.3      1 ZINC000020646552    0.0500
10     C10     0.2752   -6.0452    4.6657 C.ar     1 ZINC000020646552    0.1500
11     N11     1.4307   -5.3945    4.7485 N.ar     1 ZINC000020646552   -0.5200
12     C12     2.3336   -5.7384    5.6563 C.ar     1 ZINC000020646552    0.3800
13     C13     3.6123   -4.9898    5.7241 C.ar     1 ZINC000020646552   -0.0500
14     C14     4.5777   -5.3384    6.6669 C.ar     1 ZINC000020646552   -0.0700
15     C15     5.7659   -4.6387    6.7251 C.ar     1 ZINC000020646552   -0.1300
16     C16     5.9994   -3.5932    5.8500 C.ar     1 ZINC000020646552   -0.1000
17     C17     5.0446   -3.2425    4.9125 C.ar     1 ZINC000020646552   -0.1300
18     C18     3.8552   -3.9389    4.8414 C.ar     1 ZINC000020646552   -0.0700
19     N19     2.1221   -6.7339    6.5048 N.ar     1 ZINC000020646552   -0.5200
20     C20     0.9903   -7.4263    6.4767 C.ar     1 ZINC000020646552    0.2100
21     C21     0.0230   -7.0958    5.5555 C.ar     1 ZINC000020646552   -0.2100
22     C22    -1.2852   -7.8336    5.4809 C.3      1 ZINC000020646552    0.1100
23     O23    -1.1949   -9.0692    6.1913 O.3      1 ZINC000020646552   -0.3600
24     C24    -0.6941   -8.9185    7.5244 C.3      1 ZINC000020646552    0.1100
25     C25    -1.4583   -7.8008    8.2369 C.3      1 ZINC000020646552   -0.1800
26     C26    -0.8705  -10.2309    8.2908 C.3      1 ZINC000020646552   -0.1400
27     C27     0.7890   -8.5547    7.4535 C.3      1 ZINC000020646552   -0.0900
28     C28     0.8636   -2.0457    1.0444 C.3      1 ZINC000020646552    0.1100
29     C29     0.7062   -0.5275    1.1802 C.3      1 ZINC000020646552    0.0400
30     H30     1.0047    1.8421    0.0024 H        1 ZINC000020646552    0.0700
31     H31    -0.5450    1.8259   -0.8730 H        1 ZINC000020646552    0.0700
32     H32    -0.5280    1.8163    0.9069 H        1 ZINC000020646552    0.0300
33     H33    -1.9051   -0.3210    0.8248 H        1 ZINC000020646552    0.0400
34     H34    -1.8727   -0.1009   -0.9417 H        1 ZINC000020646552    0.0900
35     H35    -2.2899   -2.4906   -0.2334 H        1 ZINC000020646552    0.1000
36     H36    -0.8330   -2.2960   -1.2432 H        1 ZINC000020646552    0.0800
37     H37     0.8844   -4.5945    2.2254 H        1 ZINC000020646552    0.1300
38     H38     0.1632   -3.4454    3.3776 H        1 ZINC000020646552    0.1200
39     H39     4.3963   -6.1543    7.3508 H        1 ZINC000020646552    0.1400
40     H40     6.5146   -4.9077    7.4555 H        1 ZINC000020646552    0.1300
41     H41     6.9306   -3.0484    5.8991 H        1 ZINC000020646552    0.1300
42     H42     5.2321   -2.4251    4.2320 H        1 ZINC000020646552    0.1300
43     H43     3.1104   -3.6643    4.1091 H        1 ZINC000020646552    0.1300
44     H44    -2.0714   -7.2203    5.9212 H        1 ZINC000020646552    0.0800
45     H45    -1.5280   -8.0338    4.4373 H        1 ZINC000020646552    0.1100
46     H46    -2.5182   -8.0522    8.2746 H        1 ZINC000020646552    0.0700
47     H47    -1.0753   -7.6881    9.2512 H        1 ZINC000020646552    0.0700
48     H48    -1.3258   -6.8658    7.6925 H        1 ZINC000020646552    0.0600
49     H49    -0.3200  -11.0240    7.7848 H        1 ZINC000020646552    0.0700
50     H50    -0.4886  -10.1135    9.3049 H        1 ZINC000020646552    0.0800
51     H51    -1.9286  -10.4901    8.3287 H        1 ZINC000020646552    0.0700
52     H52     1.3595   -9.4215    7.1199 H        1 ZINC000020646552    0.1000
53     H53     1.1357   -8.2514    8.4414 H        1 ZINC000020646552    0.1000
54     H54     1.2814   -2.4543    1.9645 H        1 ZINC000020646552    0.0900
55     H55     1.5237   -2.2720    0.2071 H        1 ZINC000020646552    0.0800
56     H56     1.6905   -0.0647    1.2511 H        1 ZINC000020646552    0.0900
57     H57     0.1315   -0.3003    2.0781 H        1 ZINC000020646552    0.0400
@<TRIPOS>BOND
1     1     2     1
2     1     30    1
3     1     31    1
4     1     32    1
5     2     29    1
6     2     3     1
7     3     4     1
8     3     33    1
9     3     34    1
10    4     5     1
11    4     35    1
12    4     36    1
13    5     6     am
14    5     28    1
15    6     7     2
16    6     8     1
17    8     9     1
18    8     37    1
19    8     38    1
20    9     10    1
21    10    21    ar
22    10    11    ar
23    11    12    ar
24    12    13    1
25    12    19    ar
26    13    18    ar
27    13    14    ar
28    14    15    ar
29    14    39    1
30    15    16    ar
31    15    40    1
32    16    17    ar
33    16    41    1
34    17    18    ar
35    17    42    1
36    18    43    1
37    19    20    ar
38    20    27    1
39    20    21    ar
40    21    22    1
41    22    23    1
42    22    44    1
43    22    45    1
44    23    24    1
45    24    25    1
46    24    26    1
47    24    27    1
48    25    46    1
49    25    47    1
50    25    48    1
51    26    49    1
52    26    50    1
53    26    51    1
54    27    52    1
55    27    53    1
56    28    29    1
57    28    54    1
58    28    55    1
59    29    56    1
60    29    57    1
@<TRIPOS>SUBSTRUCTURE
1   ZINC000020646552 1     RESIDUE    1   A     ZIN   1
@<TRIPOS>MOLECULE
ZINC000790735374
44	47	1	0	0
SMALL
USER_CHARGES
@<TRIPOS>ATOM
1      O1      0.0021   -0.0041    0.0020 O.2      1 ZINC000790735374   -0.5100
2      C2     -0.0144    1.2086    0.0087 C.2      1 ZINC000790735374    0.5000
3      N3      1.1435    1.8983    0.0013 N.am     1 ZINC000790735374   -0.7200
4      C4      2.4220    1.1832   -0.0147 C.3      1 ZINC000790735374    0.1400
5      C5      3.5713    2.1931   -0.0203 C.3      1 ZINC000790735374   -0.0300
6      H6      3.4940    2.8222   -0.9071 H        1 ZINC000790735374    0.1100
7      S7      3.4644    3.2313    1.4625 S.3      1 ZINC000790735374   -0.2400
8      C8      5.1064    4.0176    1.4497 C.3      1 ZINC000790735374   -0.0800
9      C9      6.1462    2.9225    1.6356 C.3      1 ZINC000790735374   -0.0800
10     C10     6.0083    1.7910    0.6571 C.ar     1 ZINC000790735374   -0.0700
11     C11     7.1688    1.0290    0.4846 C.ar     1 ZINC000790735374   -0.1200
12     C12     7.1996   -0.0515   -0.3652 C.ar     1 ZINC000790735374   -0.1100
13     C13     6.0598   -0.3993   -1.0661 C.ar     1 ZINC000790735374   -0.1200
14     C14     4.9165    0.3497   -0.9056 C.ar     1 ZINC000790735374   -0.1100
15     C15     4.8857    1.4530   -0.0465 C.ar     1 ZINC000790735374   -0.0800
16     C16    -1.3296    1.9443    0.0189 C.3      1 ZINC000790735374    0.0300
17     H17    -1.3841    2.6301    0.8644 H        1 ZINC000790735374    0.1500
18     C18    -1.5562    2.6923   -1.3165 C.3      1 ZINC000790735374   -0.1400
19     C19    -2.3645    1.6924   -2.1214 C.2      1 ZINC000790735374    0.1200
20     C20    -2.5931    1.7384   -3.5793 C.ar     1 ZINC000790735374   -0.1000
21     C21    -3.3659    0.7561   -4.2101 C.ar     1 ZINC000790735374   -0.0400
22     C22    -3.5502    0.8453   -5.5788 C.ar     1 ZINC000790735374   -0.1700
23     C23    -2.9708    1.8917   -6.2732 C.ar     1 ZINC000790735374    0.1200
24     N24    -2.2471    2.8036   -5.6524 N.ar     1 ZINC000790735374   -0.4800
25     C25    -2.0471    2.7655   -4.3515 C.ar     1 ZINC000790735374    0.1400
26     N26    -2.8181    0.7944   -1.3127 N.2      1 ZINC000790735374   -0.2700
27     O27    -2.4373    1.0211    0.0309 O.3      1 ZINC000790735374   -0.1600
28     H28     1.1304    2.8682    0.0067 H        1 ZINC000790735374    0.4100
29     H29     2.4967    0.5526    0.8712 H        1 ZINC000790735374    0.0800
30     H30     2.4797    0.5621   -0.9086 H        1 ZINC000790735374    0.0900
31     H31     5.2672    4.5217    0.4967 H        1 ZINC000790735374    0.0900
32     H32     5.1778    4.7370    2.2655 H        1 ZINC000790735374    0.1100
33     H33     7.1380    3.3608    1.5246 H        1 ZINC000790735374    0.0900
34     H34     6.0554    2.5232    2.6457 H        1 ZINC000790735374    0.0900
35     H35     8.0612    1.2957    1.0314 H        1 ZINC000790735374    0.1200
36     H36     8.1075   -0.6240   -0.4846 H        1 ZINC000790735374    0.1300
37     H37     6.0667   -1.2492   -1.7325 H        1 ZINC000790735374    0.1300
38     H38     4.0253    0.0784   -1.4519 H        1 ZINC000790735374    0.1300
39     H39    -2.1241    3.6086   -1.1553 H        1 ZINC000790735374    0.1200
40     H40    -0.6062    2.9058   -1.8065 H        1 ZINC000790735374    0.1100
41     H41    -3.8065   -0.0507   -3.6433 H        1 ZINC000790735374    0.1500
42     H42    -4.1400    0.1053   -6.0993 H        1 ZINC000790735374    0.1500
43     H43    -3.1128    1.9633   -7.3415 H        1 ZINC000790735374    0.1600
44     H44    -1.4489    3.5305   -3.8790 H        1 ZINC000790735374    0.1600
@<TRIPOS>BOND
1     1     2     2
2     2     3     am
3     2     16    1
4     3     4     1
5     3     28    1
6     4     5     1
7     4     29    1
8     4     30    1
9     5     6     1
10    5     15    1
11    5     7     1
12    7     8     1
13    8     9     1
14    8     31    1
15    8     32    1
16    9     10    1
17    9     33    1
18    9     34    1
19    10    15    ar
20    10    11    ar
21    11    12    ar
22    11    35    1
23    12    13    ar
24    12    36    1
25    13    14    ar
26    13    37    1
27    14    15    ar
28    14    38    1
29    16    17    1
30    16    27    1
31    16    18    1
32    18    19    1
33    18    39    1
34    18    40    1
35    19    20    1
36    19    26    2
37    20    25    ar
38    20    21    ar
39    21    22    ar
40    21    41    1
41    22    23    ar
42    22    42    1
43    23    24    ar
44    23    43    1
45    24    25    ar
46    25    44    1
47    26    27    1
@<TRIPOS>SUBSTRUCTURE
1   ZINC000790735374 1     RESIDUE    1   A     ZIN   1
@<TRIPOS>MOLECULE
ZINC000549381790
47	49	1	0	0
SMALL
USER_CHARGES
@<TRIPOS>ATOM
1      C1      0.0086    1.5278   -0.0059 C.3      1 ZINC000549381790   -0.1400
2      C2      0.0158   -0.0021   -0.0070 C.3      1 ZINC000549381790    0.1500
3      H3     -1.0054   -0.3724    0.0835 H        1 ZINC000549381790    0.0700
4      C4      0.6330   -0.5119   -1.3131 C.3      1 ZINC000549381790   -0.1300
5      C5      0.7650   -2.0353   -1.2499 C.3      1 ZINC000549381790   -0.1200
6      C6      1.6918   -2.4212   -0.0948 C.3      1 ZINC000549381790   -0.1400
7      C7      1.0866   -1.9331    1.2251 C.3      1 ZINC000549381790    0.1000
8      N8      0.8190   -0.4917    1.1216 N.am     1 ZINC000549381790   -0.6100
9      C9      1.3054    0.3648    2.0415 C.2      1 ZINC000549381790    0.5200
10     O10     0.9925    1.5360    2.0049 O.2      1 ZINC000549381790   -0.5000
11     C11     2.2382   -0.1328    3.1155 C.3      1 ZINC000549381790    0.0400
12     O12     2.6130    0.9555    3.9625 O.3      1 ZINC000549381790   -0.2800
13     C13     3.4580    0.6751    4.9904 C.ar     1 ZINC000549381790    0.1100
14     C14     3.9199   -0.6194    5.1747 C.ar     1 ZINC000549381790   -0.1700
15     C15     4.7789   -0.9048    6.2187 C.ar     1 ZINC000549381790   -0.1600
16     C16     5.1790    0.1029    7.0828 C.ar     1 ZINC000549381790    0.1100
17     O17     6.0245   -0.1782    8.1104 O.3      1 ZINC000549381790   -0.3000
18     C18     6.4605   -1.5329    8.2397 C.3      1 ZINC000549381790    0.0900
19     C19     7.3983   -1.6542    9.4425 C.3      1 ZINC000549381790   -0.1600
20     C20     6.9439   -2.5375   10.6062 C.3      1 ZINC000549381790   -0.1700
21     C21     8.0685   -3.0086    9.6820 C.3      1 ZINC000549381790   -0.1700
22     C22     4.7168    1.3989    6.8987 C.ar     1 ZINC000549381790   -0.0300
23     Cl23    5.2179    2.6612    7.9801 Cl       1 ZINC000549381790   -0.0400
24     C24     3.8623    1.6851    5.8510 C.ar     1 ZINC000549381790   -0.1000
25     H25     1.0345    1.8960    0.0048 H        1 ZINC000549381790    0.0600
26     H26    -0.4978    1.8894   -0.9008 H        1 ZINC000549381790    0.0500
27     H27    -0.5160    1.8881    0.8790 H        1 ZINC000549381790    0.0800
28     H28    -0.0085   -0.2367   -2.1503 H        1 ZINC000549381790    0.0800
29     H29     1.6187   -0.0666   -1.4478 H        1 ZINC000549381790    0.0700
30     H30    -0.2180   -2.4786   -1.0905 H        1 ZINC000549381790    0.0700
31     H31     1.1811   -2.4030   -2.1878 H        1 ZINC000549381790    0.0700
32     H32     1.8039   -3.5050   -0.0648 H        1 ZINC000549381790    0.0800
33     H33     2.6675   -1.9579   -0.2409 H        1 ZINC000549381790    0.0700
34     H34     0.1536   -2.4629    1.4173 H        1 ZINC000549381790    0.0800
35     H35     1.7880   -2.1171    2.0389 H        1 ZINC000549381790    0.0800
36     H36     1.7355   -0.8975    3.7076 H        1 ZINC000549381790    0.0900
37     H37     3.1295   -0.5580    2.6543 H        1 ZINC000549381790    0.0900
38     H38     3.6080   -1.4048    4.5022 H        1 ZINC000549381790    0.1400
39     H39     5.1384   -1.9131    6.3619 H        1 ZINC000549381790    0.1400
40     H40     5.5961   -2.1805    8.3862 H        1 ZINC000549381790    0.0700
41     H41     6.9896   -1.8322    7.3349 H        1 ZINC000549381790    0.0700
42     H42     7.9718   -0.7592    9.6836 H        1 ZINC000549381790    0.1200
43     H43     7.2184   -2.2236   11.6133 H        1 ZINC000549381790    0.1000
44     H44     5.9769   -3.0321   10.5149 H        1 ZINC000549381790    0.1000
45     H45     7.8414   -3.8132    8.9826 H        1 ZINC000549381790    0.1000
46     H46     9.0828   -3.0046   10.0810 H        1 ZINC000549381790    0.1000
47     H47     3.5025    2.6932    5.7074 H        1 ZINC000549381790    0.1500
@<TRIPOS>BOND
1     1     2     1
2     1     25    1
3     1     26    1
4     1     27    1
5     2     3     1
6     2     8     1
7     2     4     1
8     4     5     1
9     4     28    1
10    4     29    1
11    5     6     1
12    5     30    1
13    5     31    1
14    6     7     1
15    6     32    1
16    6     33    1
17    7     8     1
18    7     34    1
19    7     35    1
20    8     9     am
21    9     10    2
22    9     11    1
23    11    12    1
24    11    36    1
25    11    37    1
26    12    13    1
27    13    24    ar
28    13    14    ar
29    14    15    ar
30    14    38    1
31    15    16    ar
32    15    39    1
33    16    17    1
34    16    22    ar
35    17    18    1
36    18    19    1
37    18    40    1
38    18    41    1
39    19    21    1
40    19    20    1
41    19    42    1
42    20    21    1
43    20    43    1
44    20    44    1
45    21    45    1
46    21    46    1
47    22    23    1
48    22    24    ar
49    24    47    1
@<TRIPOS>SUBSTRUCTURE
1   ZINC000549381790 1     RESIDUE    1   A     ZIN   1
@<TRIPOS>MOLECULE
ZINC000811540126
37	38	1	0	0
SMALL
USER_CHARGES
@<TRIPOS>ATOM
1      C1     -0.0187    1.5258    0.0104 C.3      1 ZINC000811540126   -0.1600
2      C2      0.0021   -0.0041    0.0020 C.3      1 ZINC000811540126    0.1200
3      H3      0.5123   -0.3556   -0.8948 H        1 ZINC000811540126    0.1000
4      N4      0.7106   -0.4894    1.1889 N.am     1 ZINC000811540126   -0.7200
5      C5      2.0538   -0.5998    1.1737 C.2      1 ZINC000811540126    0.5700
6      O6      2.6774   -0.2966    0.1749 O.2      1 ZINC000811540126   -0.5100
7      C7      2.7673   -1.0885    2.3689 C.ar     1 ZINC000811540126   -0.1600
8      C8      2.0544   -1.4433    3.5164 C.ar     1 ZINC000811540126   -0.0400
9      C9      2.7273   -1.8993    4.6301 C.ar     1 ZINC000811540126   -0.1200
10     I10     1.6566   -2.4310    6.3505 I        1 ZINC000811540126   -0.0300
11     C11     4.1085   -2.0078    4.6163 C.ar     1 ZINC000811540126   -0.0400
12     C12     4.8252   -1.6599    3.4883 C.ar     1 ZINC000811540126   -0.1500
13     C13     4.1642   -1.2049    2.3575 C.ar     1 ZINC000811540126    0.1900
14     O14     4.8671   -0.8633    1.2486 O.3      1 ZINC000811540126   -0.4700
15     C15    -1.4333   -0.5336    0.0129 C.3      1 ZINC000811540126    0.1400
16     H16    -1.9334   -0.2470   -0.9122 H        1 ZINC000811540126    0.1300
17     O17    -2.1371    0.0205    1.1263 O.3      1 ZINC000811540126   -0.5400
18     C18    -1.4136   -2.0361    0.1285 C.ar     1 ZINC000811540126   -0.1200
19     C19    -1.3305   -2.6325    1.3727 C.ar     1 ZINC000811540126   -0.1100
20     C20    -1.3124   -4.0107    1.4788 C.ar     1 ZINC000811540126   -0.1100
21     C21    -1.3778   -4.7924    0.3405 C.ar     1 ZINC000811540126   -0.1200
22     C22    -1.4617   -4.1959   -0.9037 C.ar     1 ZINC000811540126   -0.1100
23     C23    -1.4842   -2.8178   -1.0094 C.ar     1 ZINC000811540126   -0.1100
24     H24     1.0039    1.9031    0.0027 H        1 ZINC000811540126    0.0600
25     H25    -0.5459    1.8868   -0.8726 H        1 ZINC000811540126    0.0700
26     H26    -0.5289    1.8773    0.9072 H        1 ZINC000811540126    0.0700
27     H27     0.2131   -0.7312    1.9857 H        1 ZINC000811540126    0.3900
28     H28     0.9777   -1.3602    3.5314 H        1 ZINC000811540126    0.1300
29     H29     4.6277   -2.3662    5.4928 H        1 ZINC000811540126    0.1400
30     H30     5.9017   -1.7469    3.4853 H        1 ZINC000811540126    0.1500
31     H31     5.0068   -1.5940    0.6308 H        1 ZINC000811540126    0.4000
32     H32    -1.7471   -0.1945    1.9846 H        1 ZINC000811540126    0.3700
33     H33    -1.2794   -2.0218    2.2620 H        1 ZINC000811540126    0.1100
34     H34    -1.2468   -4.4767    2.4509 H        1 ZINC000811540126    0.1200
35     H35    -1.3629   -5.8691    0.4233 H        1 ZINC000811540126    0.1200
36     H36    -1.5125   -4.8067   -1.7930 H        1 ZINC000811540126    0.1300
37     H37    -1.5498   -2.3518   -1.9815 H        1 ZINC000811540126    0.1200
@<TRIPOS>BOND
1     1     2     1
2     1     24    1
3     1     25    1
4     1     26    1
5     2     3     1
6     2     4     1
7     2     15    1
8     4     5     am
9     4     27    1
10    5     6     2
11    5     7     1
12    7     13    ar
13    7     8     ar
14    8     9     ar
15    8     28    1
16    9     10    1
17    9     11    ar
18    11    12    ar
19    11    29    1
20    12    13    ar
21    12    30    1
22    13    14    1
23    14    31    1
24    15    16    1
25    15    17    1
26    15    18    1
27    17    32    1
28    18    23    ar
29    18    19    ar
30    19    20    ar
31    19    33    1
32    20    21    ar
33    20    34    1
34    21    22    ar
35    21    35    1
36    22    23    ar
37    22    36    1
38    23    37    1
@<TRIPOS>SUBSTRUCTURE
1   ZINC000811540126 1     RESIDUE    1   A     ZIN   1
@<TRIPOS>MOLECULE
ZINC000428266315
54	56	1	0	0
SMALL
USER_CHARGES
@<TRIPOS>ATOM
1      C1     -0.0187    1.5258    0.0104 C.3      1 ZINC000428266315   -0.1500
2      C2      0.0021   -0.0041    0.0020 C.3      1 ZINC000428266315    0.0600
3      O3     -1.3386   -0.4987    0.0122 O.3      1 ZINC000428266315   -0.3700
4      C4     -1.4321   -1.9246    0.0054 C.3      1 ZINC000428266315    0.1800
5      H5     -0.5727   -2.3426   -0.5189 H        1 ZINC000428266315    0.0900
6      C6     -1.4517   -2.4413    1.4454 C.3      1 ZINC000428266315   -0.1700
7      C7     -2.6995   -2.3416   -0.6952 C.2      1 ZINC000428266315    0.1700
8      N8     -3.8774   -1.8185   -0.5299 N.2      1 ZINC000428266315   -0.3500
9      O9     -4.6878   -2.3760   -1.2396 O.3      1 ZINC000428266315    0.0800
10     C10    -4.0855   -3.3369   -1.9466 C.2      1 ZINC000428266315    0.1900
11     C11    -4.7373   -4.2601   -2.9436 C.3      1 ZINC000428266315    0.1500
12     N12    -5.2099   -5.4689   -2.2555 N.3      1 ZINC000428266315   -0.5300
13     C13    -6.2923   -5.1500   -1.3149 C.3      1 ZINC000428266315    0.0200
14     C14    -5.6352   -6.4916   -3.2204 C.3      1 ZINC000428266315    0.1400
15     C15    -5.8784   -7.7923   -2.4992 C.2      1 ZINC000428266315   -0.2300
16     C16    -4.9609   -8.7609   -2.2732 C.2      1 ZINC000428266315    0.0800
17     N17    -5.5725   -9.7579   -1.6001 N.pl3    1 ZINC000428266315   -0.3700
18     C18    -4.9479  -11.0047   -1.1512 C.3      1 ZINC000428266315    0.1700
19     C19    -5.1581  -11.1661    0.3323 C.ar     1 ZINC000428266315   -0.0800
20     C20    -4.2354  -10.6480    1.2216 C.ar     1 ZINC000428266315   -0.1000
21     C21    -4.4282  -10.7961    2.5824 C.ar     1 ZINC000428266315   -0.0700
22     C22    -5.5441  -11.4619    3.0539 C.ar     1 ZINC000428266315   -0.1700
23     C23    -5.7541  -11.6238    4.5374 C.3      1 ZINC000428266315    0.5100
24     F24    -6.4855  -10.5360    5.0263 F        1 ZINC000428266315   -0.1700
25     F25    -6.4588  -12.8073    4.7822 F        1 ZINC000428266315   -0.1800
26     F26    -4.5131  -11.6783    5.1808 F        1 ZINC000428266315   -0.1800
27     C27    -6.4676  -11.9789    2.1646 C.ar     1 ZINC000428266315   -0.0700
28     C28    -6.2767  -11.8274    0.8039 C.ar     1 ZINC000428266315   -0.0800
29     N29    -6.9102   -9.3898   -1.4061 N.2      1 ZINC000428266315   -0.2900
30     C30    -7.0908   -8.2091   -1.9400 C.2      1 ZINC000428266315    0.0600
31     N31    -2.8181   -3.3197   -1.6107 N.2      1 ZINC000428266315   -0.4600
32     H32     1.0039    1.9031    0.0027 H        1 ZINC000428266315    0.0700
33     H33    -0.5459    1.8868   -0.8726 H        1 ZINC000428266315    0.0600
34     H34    -0.5289    1.8773    0.9072 H        1 ZINC000428266315    0.0600
35     H35     0.5123   -0.3556   -0.8948 H        1 ZINC000428266315    0.0500
36     H36     0.5293   -0.3651    0.8851 H        1 ZINC000428266315    0.0500
37     H37    -2.3110   -2.0233    1.9697 H        1 ZINC000428266315    0.0700
38     H38    -1.5230   -3.5289    1.4402 H        1 ZINC000428266315    0.0700
39     H39    -0.5349   -2.1397    1.9521 H        1 ZINC000428266315    0.0700
40     H40    -5.5824   -3.7534   -3.4096 H        1 ZINC000428266315    0.0800
41     H41    -4.0129   -4.5377   -3.7093 H        1 ZINC000428266315    0.1200
42     H42    -7.1275   -4.7080   -1.8584 H        1 ZINC000428266315    0.0400
43     H43    -6.6236   -6.0625   -0.8193 H        1 ZINC000428266315    0.0800
44     H44    -5.9291   -4.4428   -0.5693 H        1 ZINC000428266315    0.0600
45     H45    -6.5548   -6.1698   -3.7093 H        1 ZINC000428266315    0.0500
46     H46    -4.8554   -6.6315   -3.9690 H        1 ZINC000428266315    0.0900
47     H47    -3.9247   -8.7399   -2.5771 H        1 ZINC000428266315    0.1700
48     H48    -5.3993  -11.8467   -1.6759 H        1 ZINC000428266315    0.1000
49     H49    -3.8796  -10.9735   -1.3655 H        1 ZINC000428266315    0.1100
50     H50    -3.3635  -10.1278    0.8532 H        1 ZINC000428266315    0.1300
51     H51    -3.7069  -10.3918    3.2772 H        1 ZINC000428266315    0.1400
52     H52    -7.3396  -12.4988    2.5330 H        1 ZINC000428266315    0.1400
53     H53    -6.9982  -12.2313    0.1091 H        1 ZINC000428266315    0.1400
54     H54    -8.0179   -7.6553   -1.9535 H        1 ZINC000428266315    0.1800
@<TRIPOS>BOND
1     1     2     1
2     1     32    1
3     1     33    1
4     1     34    1
5     2     3     1
6     2     35    1
7     2     36    1
8     3     4     1
9     4     5     1
10    4     6     1
11    4     7     1
12    6     37    1
13    6     38    1
14    6     39    1
15    7     31    1
16    7     8     2
17    8     9     1
18    9     10    1
19    10    11    1
20    10    31    2
21    11    12    1
22    11    40    1
23    11    41    1
24    12    13    1
25    12    14    1
26    13    42    1
27    13    43    1
28    13    44    1
29    14    15    1
30    14    45    1
31    14    46    1
32    15    30    1
33    15    16    2
34    16    17    1
35    16    47    1
36    17    18    1
37    17    29    1
38    18    19    1
39    18    48    1
40    18    49    1
41    19    28    ar
42    19    20    ar
43    20    21    ar
44    20    50    1
45    21    22    ar
46    21    51    1
47    22    23    1
48    22    27    ar
49    23    24    1
50    23    25    1
51    23    26    1
52    27    28    ar
53    27    52    1
54    28    53    1
55    29    30    2
56    30    54    1
@<TRIPOS>SUBSTRUCTURE
1   ZINC000428266315 1     RESIDUE    1   A     ZIN   1
@<TRIPOS>MOLECULE
ZINC000050607728
55	57	1	0	0
SMALL
USER_CHARGES
@<TRIPOS>ATOM
1      C1      0.5761    1.4744   -0.0972 C.3      1 ZINC000050607728    0.0800
2      N2      0.5839    0.0106   -0.1560 N.am     1 ZINC000050607728   -0.6200
3      C3      1.2409   -0.7614    0.9016 C.3      1 ZINC000050607728    0.0700
4      C4     -0.0133   -0.6258   -1.1830 C.2      1 ZINC000050607728    0.5600
5      O5     -0.4650    0.0126   -2.1135 O.2      1 ZINC000050607728   -0.5300
6      C6     -0.1191   -2.1004   -1.1778 C.ar     1 ZINC000050607728   -0.1400
7      C7     -0.3165   -2.7847    0.0224 C.ar     1 ZINC000050607728   -0.0800
8      C8     -0.4149   -4.1609    0.0203 C.ar     1 ZINC000050607728   -0.1300
9      C9     -0.3177   -4.8625   -1.1680 C.ar     1 ZINC000050607728   -0.0700
10     C10    -0.1214   -4.1902   -2.3615 C.ar     1 ZINC000050607728   -0.1100
11     C11    -0.0162   -4.9627   -3.6512 C.3      1 ZINC000050607728    0.1100
12     O12    -1.3375   -5.1142   -4.2338 O.3      1 ZINC000050607728   -0.3400
13     C13    -1.4187   -5.7840   -5.3942 C.2      1 ZINC000050607728    0.4700
14     O14    -0.4188   -6.2289   -5.9062 O.2      1 ZINC000050607728   -0.5000
15     C15    -2.7570   -5.9810   -6.0584 C.3      1 ZINC000050607728    0.2000
16     H16    -3.1974   -5.0097   -6.2836 H        1 ZINC000050607728    0.1400
17     N17    -2.5790   -6.7364   -7.3010 N.am     1 ZINC000050607728   -0.7100
18     C18    -3.4781   -6.6156   -8.2977 C.2      1 ZINC000050607728    0.5700
19     O19    -4.4366   -5.8799   -8.1658 O.2      1 ZINC000050607728   -0.5200
20     C20    -3.2984   -7.3779   -9.5517 C.ar     1 ZINC000050607728   -0.1400
21     C21    -2.2019   -8.2280   -9.7042 C.ar     1 ZINC000050607728   -0.0800
22     C22    -2.0404   -8.9368  -10.8767 C.ar     1 ZINC000050607728   -0.1300
23     C23    -2.9621   -8.8062  -11.9002 C.ar     1 ZINC000050607728   -0.0900
24     C24    -4.0510   -7.9649  -11.7556 C.ar     1 ZINC000050607728   -0.1300
25     C25    -4.2276   -7.2551  -10.5859 C.ar     1 ZINC000050607728   -0.0600
26     C26    -3.6696   -6.7439   -5.1331 C.ar     1 ZINC000050607728   -0.1000
27     C27    -3.5538   -8.1171   -5.0254 C.ar     1 ZINC000050607728   -0.1000
28     C28    -4.3909   -8.8169   -4.1766 C.ar     1 ZINC000050607728   -0.1200
29     C29    -5.3436   -8.1434   -3.4353 C.ar     1 ZINC000050607728   -0.1100
30     C30    -5.4589   -6.7700   -3.5424 C.ar     1 ZINC000050607728   -0.1200
31     C31    -4.6189   -6.0697   -4.3879 C.ar     1 ZINC000050607728   -0.0800
32     C32    -0.0276   -2.8141   -2.3740 C.ar     1 ZINC000050607728   -0.0400
33     H33     1.4552    1.8634   -0.6111 H        1 ZINC000050607728    0.0600
34     H34    -0.3245    1.8527   -0.5810 H        1 ZINC000050607728    0.0800
35     H35     0.5918    1.7964    0.9440 H        1 ZINC000050607728    0.0700
36     H36     0.5476   -0.9058    1.7302 H        1 ZINC000050607728    0.0600
37     H37     1.5442   -1.7317    0.5083 H        1 ZINC000050607728    0.0800
38     H38     2.1199   -0.2211    1.2533 H        1 ZINC000050607728    0.0700
39     H39    -0.3919   -2.2381    0.9509 H        1 ZINC000050607728    0.1400
40     H40    -0.5677   -4.6917    0.9484 H        1 ZINC000050607728    0.1400
41     H41    -0.3949   -5.9397   -1.1642 H        1 ZINC000050607728    0.1300
42     H42     0.6277   -4.4237   -4.3461 H        1 ZINC000050607728    0.0900
43     H43     0.4079   -5.9468   -3.4516 H        1 ZINC000050607728    0.0900
44     H44    -1.8141   -7.3235   -7.4063 H        1 ZINC000050607728    0.4100
45     H45    -1.4813   -8.3303   -8.9063 H        1 ZINC000050607728    0.1300
46     H46    -1.1924   -9.5949  -10.9960 H        1 ZINC000050607728    0.1300
47     H47    -2.8309   -9.3631  -12.8162 H        1 ZINC000050607728    0.1300
48     H48    -4.7667   -7.8671  -12.5585 H        1 ZINC000050607728    0.1300
49     H49    -5.0782   -6.5990  -10.4742 H        1 ZINC000050607728    0.1400
50     H50    -2.8094   -8.6433   -5.6045 H        1 ZINC000050607728    0.1200
51     H51    -4.3008   -9.8899   -4.0929 H        1 ZINC000050607728    0.1200
52     H52    -5.9981   -8.6902   -2.7727 H        1 ZINC000050607728    0.1200
53     H53    -6.2035   -6.2438   -2.9634 H        1 ZINC000050607728    0.1300
54     H54    -4.7090   -4.9968   -4.4716 H        1 ZINC000050607728    0.1300
55     H55     0.1252   -2.2905   -3.3062 H        1 ZINC000050607728    0.1300
@<TRIPOS>BOND
1     1     2     1
2     1     33    1
3     1     34    1
4     1     35    1
5     2     3     1
6     2     4     am
7     3     36    1
8     3     37    1
9     3     38    1
10    4     5     2
11    4     6     1
12    6     32    ar
13    6     7     ar
14    7     8     ar
15    7     39    1
16    8     9     ar
17    8     40    1
18    9     10    ar
19    9     41    1
20    10    11    1
21    10    32    ar
22    11    12    1
23    11    42    1
24    11    43    1
25    12    13    1
26    13    14    2
27    13    15    1
28    15    16    1
29    15    17    1
30    15    26    1
31    17    18    am
32    17    44    1
33    18    19    2
34    18    20    1
35    20    25    ar
36    20    21    ar
37    21    22    ar
38    21    45    1
39    22    23    ar
40    22    46    1
41    23    24    ar
42    23    47    1
43    24    25    ar
44    24    48    1
45    25    49    1
46    26    31    ar
47    26    27    ar
48    27    28    ar
49    27    50    1
50    28    29    ar
51    28    51    1
52    29    30    ar
53    29    52    1
54    30    31    ar
55    30    53    1
56    31    54    1
57    32    55    1
@<TRIPOS>SUBSTRUCTURE
1   ZINC000050607728 1     RESIDUE    1   A     ZIN   1
@<TRIPOS>MOLECULE
ZINC000518234532
44	46	1	0	0
SMALL
USER_CHARGES
@<TRIPOS>ATOM
1      C1     -0.0187    1.5258    0.0104 C.3      1 ZINC000518234532   -0.1600
2      C2      0.0021   -0.0041    0.0020 C.3      1 ZINC000518234532    0.1800
3      H3      0.5123   -0.3556   -0.8948 H        1 ZINC000518234532    0.1100
4      N4      0.7106   -0.4894    1.1889 N.am     1 ZINC000518234532   -0.7300
5      C5      2.0538   -0.5998    1.1737 C.2      1 ZINC000518234532    0.5200
6      O6      2.6758   -0.2974    0.1774 O.2      1 ZINC000518234532   -0.5200
7      C7      2.7826   -1.0990    2.3946 C.3      1 ZINC000518234532   -0.0700
8      H8      2.4385   -2.1044    2.6374 H        1 ZINC000518234532    0.1100
9      C9      2.5019   -0.1652    3.5735 C.3      1 ZINC000518234532   -0.1400
10     C10     4.2638   -1.1281    2.1185 C.ar     1 ZINC000518234532   -0.1000
11     C11     4.9291    0.0382    1.7921 C.ar     1 ZINC000518234532   -0.0600
12     C12     6.2881    0.0118    1.5387 C.ar     1 ZINC000518234532   -0.1300
13     C13     6.9827   -1.1811    1.6110 C.ar     1 ZINC000518234532   -0.0900
14     C14     6.3192   -2.3491    1.9368 C.ar     1 ZINC000518234532   -0.1600
15     C15     4.9598   -2.3227    2.1972 C.ar     1 ZINC000518234532    0.1000
16     F16     4.3103   -3.4637    2.5158 F        1 ZINC000518234532   -0.1400
17     C17    -1.4117   -0.5257    0.0127 C.ar     1 ZINC000518234532   -0.0600
18     C18    -2.0134   -0.8634    1.2100 C.ar     1 ZINC000518234532   -0.1100
19     C19    -3.3148   -1.3430    1.2231 C.ar     1 ZINC000518234532    0.0800
20     C20    -4.0129   -1.4809    0.0294 C.ar     1 ZINC000518234532    0.0600
21     C21    -3.4035   -1.1415   -1.1694 C.ar     1 ZINC000518234532   -0.0800
22     C22    -2.1072   -0.6603   -1.1755 C.ar     1 ZINC000518234532   -0.0800
23     Br23   -1.2796   -0.1974   -2.8115 Br       1 ZINC000518234532   -0.0300
24     O24    -5.2934   -1.9422    0.0207 O.3      1 ZINC000518234532   -0.3000
25     C25    -5.7406   -2.6222    1.1986 C.3      1 ZINC000518234532    0.0200
26     C26    -5.3189   -1.7949    2.4205 C.3      1 ZINC000518234532    0.0200
27     O27    -3.8923   -1.6753    2.4102 O.3      1 ZINC000518234532   -0.3000
28     H28     1.0039    1.9031    0.0027 H        1 ZINC000518234532    0.0700
29     H29    -0.5459    1.8868   -0.8726 H        1 ZINC000518234532    0.0700
30     H30    -0.5289    1.8773    0.9072 H        1 ZINC000518234532    0.0600
31     H31     0.2131   -0.7312    1.9857 H        1 ZINC000518234532    0.4000
32     H32     1.4305   -0.1441    3.7733 H        1 ZINC000518234532    0.0700
33     H33     3.0291   -0.5262    4.4566 H        1 ZINC000518234532    0.0700
34     H34     2.8460    0.8402    3.3307 H        1 ZINC000518234532    0.0700
35     H35     4.3873    0.9707    1.7346 H        1 ZINC000518234532    0.1300
36     H36     6.8072    0.9238    1.2837 H        1 ZINC000518234532    0.1300
37     H37     8.0441   -1.2006    1.4125 H        1 ZINC000518234532    0.1300
38     H38     6.8620   -3.2811    1.9926 H        1 ZINC000518234532    0.1400
39     H39    -1.4696   -0.7541    2.1367 H        1 ZINC000518234532    0.1400
40     H40    -3.9431   -1.2498   -2.0986 H        1 ZINC000518234532    0.1500
41     H41    -6.8261   -2.7193    1.1772 H        1 ZINC000518234532    0.1300
42     H42    -5.2836   -3.6105    1.2483 H        1 ZINC000518234532    0.0800
43     H43    -5.7711   -0.8045    2.3677 H        1 ZINC000518234532    0.0800
44     H44    -5.6392   -2.2976    3.3330 H        1 ZINC000518234532    0.1300
@<TRIPOS>BOND
1     1     2     1
2     1     28    1
3     1     29    1
4     1     30    1
5     2     3     1
6     2     4     1
7     2     17    1
8     4     5     am
9     4     31    1
10    5     6     2
11    5     7     1
12    7     8     1
13    7     9     1
14    7     10    1
15    9     32    1
16    9     33    1
17    9     34    1
18    10    15    ar
19    10    11    ar
20    11    12    ar
21    11    35    1
22    12    13    ar
23    12    36    1
24    13    14    ar
25    13    37    1
26    14    15    ar
27    14    38    1
28    15    16    1
29    17    22    ar
30    17    18    ar
31    18    19    ar
32    18    39    1
33    19    27    1
34    19    20    ar
35    20    21    ar
36    20    24    1
37    21    22    ar
38    21    40    1
39    22    23    1
40    24    25    1
41    25    26    1
42    25    41    1
43    25    42    1
44    26    27    1
45    26    43    1
46    26    44    1
@<TRIPOS>SUBSTRUCTURE
1   ZINC000518234532 1     RESIDUE    1   A     ZIN   1
@<TRIPOS>MOLECULE
ZINC000648570180
55	58	1	0	0
SMALL
USER_CHARGES
@<TRIPOS>ATOM
1      C1      0.2814    1.5153   -0.1538 C.3      1 ZINC000648570180   -0.1500
2      C2      0.1805   -0.0103   -0.0957 C.3      1 ZINC000648570180   -0.0600
3      C3     -1.2877   -0.4396   -0.1283 C.3      1 ZINC000648570180   -0.1400
4      C4      0.9416   -0.6359   -1.2828 C.3      1 ZINC000648570180   -0.1200
5      C5      1.5841   -1.9147   -0.6904 C.3      1 ZINC000648570180   -0.1300
6      C6      2.0020   -1.4607    0.7303 C.3      1 ZINC000648570180   -0.1200
7      C7      0.8547   -0.5347    1.1842 C.3      1 ZINC000648570180   -0.0700
8      H8      0.1361   -1.0958    1.7817 H        1 ZINC000648570180    0.0800
9      C9      1.4147    0.6329    1.9990 C.3      1 ZINC000648570180   -0.1000
10     H10     1.9624    1.3255    1.3598 H        1 ZINC000648570180    0.1000
11     C11     0.2854    1.3641    2.7719 C.3      1 ZINC000648570180   -0.1400
12     C12     1.0310    1.9757    3.9767 C.3      1 ZINC000648570180    0.1200
13     N13     2.2644    1.1984    4.1671 N.am     1 ZINC000648570180   -0.6000
14     C14     3.2011    1.4295    5.1081 C.2      1 ZINC000648570180    0.5800
15     O15     4.1847    0.7196    5.1733 O.2      1 ZINC000648570180   -0.5200
16     C16     3.0309    2.5518    6.0651 C.ar     1 ZINC000648570180    0.1600
17     C17     3.9964    2.8040    7.0393 C.ar     1 ZINC000648570180   -0.2000
18     C18     3.7937    3.8648    7.9115 C.ar     1 ZINC000648570180    0.1800
19     N19     2.7010    4.5977    7.7933 N.ar     1 ZINC000648570180   -0.5400
20     C20     1.8005    4.3335    6.8567 C.ar     1 ZINC000648570180    0.4800
21     N21     0.6690    5.1259    6.7668 N.3      1 ZINC000648570180   -0.4400
22     C22    -0.5598    4.3297    7.0168 C.3      1 ZINC000648570180    0.0500
23     C23    -1.6080    5.4055    7.3971 C.3      1 ZINC000648570180   -0.1200
24     C24    -0.7814    6.4159    8.2253 C.3      1 ZINC000648570180   -0.1300
25     C25     0.6802    6.1850    7.7991 C.3      1 ZINC000648570180    0.0400
26     N26     1.9574    3.3357    6.0027 N.ar     1 ZINC000648570180   -0.5000
27     C27     2.3070    0.1236    3.1583 C.3      1 ZINC000648570180    0.1100
28     H28     1.3204    1.8161   -0.0195 H        1 ZINC000648570180    0.0600
29     H29    -0.0762    1.8664   -1.1218 H        1 ZINC000648570180    0.0500
30     H30    -0.3281    1.9502    0.6383 H        1 ZINC000648570180    0.0700
31     H31    -1.7529   -0.0740   -1.0438 H        1 ZINC000648570180    0.0500
32     H32    -1.3488   -1.5275   -0.0991 H        1 ZINC000648570180    0.0500
33     H33    -1.8073   -0.0232    0.7346 H        1 ZINC000648570180    0.0500
34     H34     0.2509   -0.8928   -2.0859 H        1 ZINC000648570180    0.0600
35     H35     1.7116    0.0458   -1.6440 H        1 ZINC000648570180    0.0700
36     H36     0.8562   -2.7244   -0.6388 H        1 ZINC000648570180    0.0700
37     H37     2.4559   -2.2140   -1.2723 H        1 ZINC000648570180    0.0700
38     H38     2.0851   -2.3196    1.3962 H        1 ZINC000648570180    0.0700
39     H39     2.9432   -0.9123    0.6941 H        1 ZINC000648570180    0.0700
40     H40    -0.1596    2.1459    2.1564 H        1 ZINC000648570180    0.0900
41     H41    -0.4733    0.6566    3.1066 H        1 ZINC000648570180    0.0800
42     H42     1.2774    3.0172    3.7703 H        1 ZINC000648570180    0.0800
43     H43     0.4096    1.9095    4.8697 H        1 ZINC000648570180    0.0700
44     H44     4.8807    2.1884    7.1137 H        1 ZINC000648570180    0.1600
45     H45     4.5209    4.0882    8.6781 H        1 ZINC000648570180    0.1800
46     H46    -0.8638    3.7981    6.1151 H        1 ZINC000648570180    0.1000
47     H47    -0.4060    3.6338    7.8415 H        1 ZINC000648570180    0.0500
48     H48    -2.0150    5.8800    6.5043 H        1 ZINC000648570180    0.0800
49     H49    -2.4043    4.9713    8.0016 H        1 ZINC000648570180    0.0800
50     H50    -1.0869    7.4359    7.9919 H        1 ZINC000648570180    0.0800
51     H51    -0.9005    6.2189    9.2907 H        1 ZINC000648570180    0.0700
52     H52     1.2703    5.8615    8.6565 H        1 ZINC000648570180    0.0900
53     H53     1.0956    7.1034    7.3843 H        1 ZINC000648570180    0.0900
54     H54     1.9011   -0.8001    3.5708 H        1 ZINC000648570180    0.0700
55     H55     3.3288   -0.0315    2.8121 H        1 ZINC000648570180    0.0800
@<TRIPOS>BOND
1     1     2     1
2     1     28    1
3     1     29    1
4     1     30    1
5     2     7     1
6     2     3     1
7     2     4     1
8     3     31    1
9     3     32    1
10    3     33    1
11    4     5     1
12    4     34    1
13    4     35    1
14    5     6     1
15    5     36    1
16    5     37    1
17    6     7     1
18    6     38    1
19    6     39    1
20    7     8     1
21    7     9     1
22    9     10    1
23    9     27    1
24    9     11    1
25    11    12    1
26    11    40    1
27    11    41    1
28    12    13    1
29    12    42    1
30    12    43    1
31    13    14    am
32    13    27    1
33    14    15    2
34    14    16    1
35    16    26    ar
36    16    17    ar
37    17    18    ar
38    17    44    1
39    18    19    ar
40    18    45    1
41    19    20    ar
42    20    21    1
43    20    26    ar
44    21    25    1
45    21    22    1
46    22    23    1
47    22    46    1
48    22    47    1
49    23    24    1
50    23    48    1
51    23    49    1
52    24    25    1
53    24    50    1
54    24    51    1
55    25    52    1
56    25    53    1
57    27    54    1
58    27    55    1
@<TRIPOS>SUBSTRUCTURE
1   ZINC000648570180 1     RESIDUE    1   A     ZIN   1
@<TRIPOS>MOLECULE
ZINC000864730443
57	58	1	0	0
SMALL
USER_CHARGES
@<TRIPOS>ATOM
1      C1      5.1996    4.2686    0.1556 C.3      1 ZINC000864730443   -0.1800
2      C2      4.3503    4.6685   -1.0526 C.3      1 ZINC000864730443    0.1400
3      C3      2.8686    4.6121   -0.6756 C.3      1 ZINC000864730443   -0.1800
4      C4      4.7133    6.0912   -1.4827 C.3      1 ZINC000864730443   -0.1400
5      O5      4.6061    3.7513   -2.1488 O.3      1 ZINC000864730443   -0.3600
6      C6      4.3372    2.4499   -1.9324 C.2      1 ZINC000864730443    0.6500
7      O7      3.9007    2.0905   -0.8568 O.2      1 ZINC000864730443   -0.5700
8      N8      4.5521    1.5460   -2.9086 N.am     1 ZINC000864730443   -0.7100
9      C9      4.2595    0.1299   -2.6731 C.3      1 ZINC000864730443    0.1500
10     C10     4.4717   -0.6569   -3.9680 C.3      1 ZINC000864730443   -0.1300
11     C11     3.6336   -0.0549   -5.0662 C.2      1 ZINC000864730443    0.5300
12     O12     4.1691    0.4902   -6.0081 O.2      1 ZINC000864730443   -0.5300
13     N13     2.2891   -0.1221   -5.0017 N.am     1 ZINC000864730443   -0.7200
14     C14     1.4724    0.5600   -6.0087 C.3      1 ZINC000864730443    0.1200
15     C15    -0.0093    0.3266   -5.7071 C.3      1 ZINC000864730443   -0.1300
16     C16    -0.8622    1.0390   -6.7587 C.3      1 ZINC000864730443    0.0800
17     H17    -0.5659    0.7267   -7.7601 H        1 ZINC000864730443    0.0800
18     C18    -2.3646    0.7407   -6.5248 C.3      1 ZINC000864730443   -0.1500
19     C19    -3.0189    1.9797   -7.1947 C.3      1 ZINC000864730443   -0.1600
20     C20    -1.9931    3.0940   -6.8953 C.3      1 ZINC000864730443    0.0500
21     O21    -0.7348    2.4633   -6.6226 O.3      1 ZINC000864730443   -0.3800
22     C22     5.9507   -0.6033   -4.3630 C.3      1 ZINC000864730443   -0.1000
23     C23     6.1645   -1.4579   -5.6161 C.3      1 ZINC000864730443   -0.1600
24     C24     5.6890   -2.8862   -5.3374 C.3      1 ZINC000864730443    0.0600
25     O25     4.3150   -2.8615   -4.9456 O.3      1 ZINC000864730443   -0.3700
26     C26     4.0616   -2.1161   -3.7529 C.3      1 ZINC000864730443    0.0800
27     H27     4.9409    3.2551    0.4621 H        1 ZINC000864730443    0.0900
28     H28     6.2552    4.3088   -0.1129 H        1 ZINC000864730443    0.0600
29     H29     5.0075    4.9571    0.9785 H        1 ZINC000864730443    0.0700
30     H30     2.6766    5.3006    0.1473 H        1 ZINC000864730443    0.0700
31     H31     2.2636    4.8970   -1.5364 H        1 ZINC000864730443    0.0600
32     H32     2.6100    3.5985   -0.3692 H        1 ZINC000864730443    0.0900
33     H33     5.7690    6.1314   -1.7513 H        1 ZINC000864730443    0.0700
34     H34     4.1083    6.3761   -2.3435 H        1 ZINC000864730443    0.0700
35     H35     4.5213    6.7797   -0.6598 H        1 ZINC000864730443    0.0800
36     H36     4.9006    1.8329   -3.7672 H        1 ZINC000864730443    0.4100
37     H37     4.9253   -0.2551   -1.9007 H        1 ZINC000864730443    0.0900
38     H38     3.2248    0.0220   -2.3478 H        1 ZINC000864730443    0.0800
39     H39     1.8621   -0.6222   -4.2886 H        1 ZINC000864730443    0.4000
40     H40     1.6841    1.6290   -5.9847 H        1 ZINC000864730443    0.0700
41     H41     1.7088    0.1649   -6.9967 H        1 ZINC000864730443    0.0700
42     H42    -0.2209   -0.7424   -5.7310 H        1 ZINC000864730443    0.0800
43     H43    -0.2456    0.7217   -4.7191 H        1 ZINC000864730443    0.0800
44     H44    -2.6646   -0.1804   -7.0244 H        1 ZINC000864730443    0.0900
45     H45    -2.5962    0.7015   -5.4604 H        1 ZINC000864730443    0.0800
46     H46    -3.1254    1.8289   -8.2689 H        1 ZINC000864730443    0.0800
47     H47    -3.9817    2.2054   -6.7362 H        1 ZINC000864730443    0.0800
48     H48    -1.8966    3.7498   -7.7606 H        1 ZINC000864730443    0.0700
49     H49    -2.3152    3.6696   -6.0276 H        1 ZINC000864730443    0.0700
50     H50     6.2351    0.4280   -4.5721 H        1 ZINC000864730443    0.0800
51     H51     6.5603   -0.9928   -3.5476 H        1 ZINC000864730443    0.0800
52     H52     5.5933   -1.0389   -6.4445 H        1 ZINC000864730443    0.0900
53     H53     7.2239   -1.4701   -5.8723 H        1 ZINC000864730443    0.0800
54     H54     5.7991   -3.4884   -6.2392 H        1 ZINC000864730443    0.1000
55     H55     6.2878   -3.3187   -4.5359 H        1 ZINC000864730443    0.0500
56     H56     4.6392   -2.5387   -2.9307 H        1 ZINC000864730443    0.0700
57     H57     2.9994   -2.1637   -3.5133 H        1 ZINC000864730443    0.1000
@<TRIPOS>BOND
1     1     2     1
2     1     27    1
3     1     28    1
4     1     29    1
5     2     3     1
6     2     4     1
7     2     5     1
8     3     30    1
9     3     31    1
10    3     32    1
11    4     33    1
12    4     34    1
13    4     35    1
14    5     6     1
15    6     7     2
16    6     8     am
17    8     9     1
18    8     36    1
19    9     10    1
20    9     37    1
21    9     38    1
22    10    26    1
23    10    11    1
24    10    22    1
25    11    12    2
26    11    13    am
27    13    14    1
28    13    39    1
29    14    15    1
30    14    40    1
31    14    41    1
32    15    16    1
33    15    42    1
34    15    43    1
35    16    17    1
36    16    21    1
37    16    18    1
38    18    19    1
39    18    44    1
40    18    45    1
41    19    20    1
42    19    46    1
43    19    47    1
44    20    21    1
45    20    48    1
46    20    49    1
47    22    23    1
48    22    50    1
49    22    51    1
50    23    24    1
51    23    52    1
52    23    53    1
53    24    25    1
54    24    54    1
55    24    55    1
56    25    26    1
57    26    56    1
58    26    57    1
@<TRIPOS>SUBSTRUCTURE
1   ZINC000864730443 1     RESIDUE    1   A     ZIN   1
@<TRIPOS>MOLECULE
ZINC001340951935
62	65	1	0	0
SMALL
USER_CHARGES
@<TRIPOS>ATOM
1      C1     -2.6684   -2.7939   -4.7093 C.3      1 ZINC001340951935   -0.1500
2      C2     -1.9369   -1.9340   -3.6767 C.3      1 ZINC001340951935   -0.1400
3      C3     -1.6690   -2.7639   -2.4196 C.3      1 ZINC001340951935    0.0800
4      H4     -1.1500   -3.6844   -2.6869 H        1 ZINC001340951935    0.1000
5      C5     -3.0018   -3.0977   -1.7170 C.3      1 ZINC001340951935   -0.1300
6      C6     -2.6432   -2.9781   -0.2124 C.3      1 ZINC001340951935   -0.1300
7      C7     -1.6345   -1.8026   -0.2236 C.3      1 ZINC001340951935    0.0500
8      N8     -0.8532   -1.9859   -1.4693 N.3      1 ZINC001340951935   -0.4500
9      C9     -0.4895   -0.7636   -2.0118 C.2      1 ZINC001340951935    0.3700
10     N10    -1.1248    0.3751   -1.8648 N.2      1 ZINC001340951935   -0.3200
11     N11    -0.5087    1.3045   -2.5039 N.2      1 ZINC001340951935   -0.2700
12     C12     0.5475    0.8180   -3.0917 C.2      1 ZINC001340951935    0.1700
13     C13     1.5322    1.5846   -3.9366 C.3      1 ZINC001340951935   -0.0700
14     C14     2.5808    2.2363   -3.0329 C.3      1 ZINC001340951935    0.1500
15     H15     2.7091    1.6377   -2.1311 H        1 ZINC001340951935    0.0900
16     C16     2.1256    3.6465   -2.6526 C.3      1 ZINC001340951935   -0.1300
17     C17     1.3390    4.2843   -3.7832 C.3      1 ZINC001340951935   -0.1300
18     C18     2.1692    4.5729   -5.0207 C.3      1 ZINC001340951935   -0.1100
19     C19     2.6320    3.2709   -5.6789 C.3      1 ZINC001340951935   -0.1700
20     C20     3.9033    2.8127   -4.9957 C.2      1 ZINC001340951935    0.5200
21     O21     4.9631    2.8827   -5.5812 O.2      1 ZINC001340951935   -0.5500
22     N22     3.8625    2.3288   -3.7508 N.am     1 ZINC001340951935   -0.7200
23     N23     0.6001   -0.5157   -2.7949 N.pl3    1 ZINC001340951935   -0.4700
24     C24     1.6117   -1.4802   -3.2338 C.3      1 ZINC001340951935    0.1200
25     C25     2.6881   -1.6167   -2.1552 C.3      1 ZINC001340951935   -0.0900
26     C26     3.7899   -2.5147   -2.6558 C.ar     1 ZINC001340951935   -0.0900
27     C27     3.6738   -3.8865   -2.5313 C.ar     1 ZINC001340951935   -0.1100
28     C28     4.6845   -4.7102   -2.9905 C.ar     1 ZINC001340951935   -0.1200
29     C29     5.8111   -4.1621   -3.5747 C.ar     1 ZINC001340951935   -0.1200
30     C30     5.9268   -2.7903   -3.7001 C.ar     1 ZINC001340951935   -0.1200
31     C31     4.9142   -1.9668   -3.2447 C.ar     1 ZINC001340951935   -0.1100
32     H32    -2.9342   -2.1805   -5.5702 H        1 ZINC001340951935    0.0600
33     H33    -2.0185   -3.6081   -5.0300 H        1 ZINC001340951935    0.0600
34     H34    -3.5737   -3.2058   -4.2633 H        1 ZINC001340951935    0.0600
35     H35    -0.9903   -1.5912   -4.0944 H        1 ZINC001340951935    0.0600
36     H36    -2.5533   -1.0727   -3.4190 H        1 ZINC001340951935    0.0700
37     H37    -3.7719   -2.3756   -1.9882 H        1 ZINC001340951935    0.0800
38     H38    -3.3209   -4.1118   -1.9577 H        1 ZINC001340951935    0.0800
39     H39    -3.5239   -2.7313    0.3805 H        1 ZINC001340951935    0.0800
40     H40    -2.1735   -3.8922    0.1509 H        1 ZINC001340951935    0.0800
41     H41    -2.1628   -0.8494   -0.2423 H        1 ZINC001340951935    0.0800
42     H42    -0.9787   -1.8569    0.6454 H        1 ZINC001340951935    0.0900
43     H43     2.0238    0.9026   -4.6304 H        1 ZINC001340951935    0.0900
44     H44     1.0057    2.3567   -4.4977 H        1 ZINC001340951935    0.1400
45     H45     1.4965    3.5926   -1.7641 H        1 ZINC001340951935    0.0800
46     H46     3.0005    4.2589   -2.4347 H        1 ZINC001340951935    0.0700
47     H47     0.5232    3.6164   -4.0595 H        1 ZINC001340951935    0.0800
48     H48     0.9117    5.2208   -3.4246 H        1 ZINC001340951935    0.0700
49     H49     1.5686    5.1406   -5.7314 H        1 ZINC001340951935    0.0800
50     H50     3.0417    5.1620   -4.7381 H        1 ZINC001340951935    0.0700
51     H51     1.8606    2.5091   -5.5660 H        1 ZINC001340951935    0.1100
52     H52     2.8271    3.4447   -6.7371 H        1 ZINC001340951935    0.1000
53     H53     4.6818    2.0415   -3.3184 H        1 ZINC001340951935    0.4000
54     H54     1.1412   -2.4489   -3.4022 H        1 ZINC001340951935    0.1000
55     H55     2.0679   -1.1319   -4.1605 H        1 ZINC001340951935    0.0900
56     H56     3.0976   -0.6333   -1.9241 H        1 ZINC001340951935    0.0800
57     H57     2.2486   -2.0477   -1.2557 H        1 ZINC001340951935    0.0900
58     H58     2.7936   -4.3147   -2.0749 H        1 ZINC001340951935    0.1200
59     H59     4.5941   -5.7820   -2.8926 H        1 ZINC001340951935    0.1200
60     H60     6.6010   -4.8057   -3.9329 H        1 ZINC001340951935    0.1200
61     H61     6.8072   -2.3621   -4.1561 H        1 ZINC001340951935    0.1200
62     H62     5.0046   -0.8951   -3.3426 H        1 ZINC001340951935    0.1200
@<TRIPOS>BOND
1     1     2     1
2     1     32    1
3     1     33    1
4     1     34    1
5     2     3     1
6     2     35    1
7     2     36    1
8     3     4     1
9     3     8     1
10    3     5     1
11    5     6     1
12    5     37    1
13    5     38    1
14    6     7     1
15    6     39    1
16    6     40    1
17    7     8     1
18    7     41    1
19    7     42    1
20    8     9     1
21    9     23    1
22    9     10    2
23    10    11    1
24    11    12    2
25    12    13    1
26    12    23    1
27    13    14    1
28    13    43    1
29    13    44    1
30    14    15    1
31    14    22    1
32    14    16    1
33    16    17    1
34    16    45    1
35    16    46    1
36    17    18    1
37    17    47    1
38    17    48    1
39    18    19    1
40    18    49    1
41    18    50    1
42    19    20    1
43    19    51    1
44    19    52    1
45    20    21    2
46    20    22    am
47    22    53    1
48    23    24    1
49    24    25    1
50    24    54    1
51    24    55    1
52    25    26    1
53    25    56    1
54    25    57    1
55    26    31    ar
56    26    27    ar
57    27    28    ar
58    27    58    1
59    28    29    ar
60    28    59    1
61    29    30    ar
62    29    60    1
63    30    31    ar
64    30    61    1
65    31    62    1
@<TRIPOS>SUBSTRUCTURE
1   ZINC001340951935 1     RESIDUE    1   A     ZIN   1
@<TRIPOS>MOLECULE
ZINC001009116151
55	59	1	0	0
SMALL
USER_CHARGES
@<TRIPOS>ATOM
1      O1      0.0021   -0.0041    0.0020 O.2      1 ZINC001009116151   -0.5400
2      C2     -0.0144    1.2086    0.0087 C.2      1 ZINC001009116151    0.5200
3      N3      1.1435    1.8983    0.0013 N.am     1 ZINC001009116151   -0.7300
4      C4      2.4220    1.1832   -0.0147 C.3      1 ZINC001009116151    0.1500
5      C5      3.5713    2.1931   -0.0203 C.3      1 ZINC001009116151   -0.1200
6      H6      3.3630    3.1441    0.4700 H        1 ZINC001009116151    0.1100
7      C7      4.4822    2.2180   -1.2493 C.3      1 ZINC001009116151   -0.1700
8      H8      4.2532    1.5774   -2.1009 H        1 ZINC001009116151    0.1200
9      C9      5.3106    3.4934   -1.5154 C.3      1 ZINC001009116151    0.1300
10     N10     6.5567    3.2987   -0.7381 N.am     1 ZINC001009116151   -0.6200
11     C11     7.8149    3.6195   -1.0992 C.2      1 ZINC001009116151    0.5500
12     O12     8.0241    4.1328   -2.1779 O.2      1 ZINC001009116151   -0.5300
13     C13     8.9619    3.3404   -0.1624 C.3      1 ZINC001009116151   -0.1200
14     C14     9.1908    1.8195   -0.0027 C.3      1 ZINC001009116151   -0.0900
15     C15    10.2391    1.4782   -1.0361 C.2      1 ZINC001009116151   -0.1800
16     C16    10.8473    2.5521   -1.4609 C.2      1 ZINC001009116151   -0.1500
17     C17    10.3061    3.7886   -0.7817 C.3      1 ZINC001009116151   -0.0900
18     C18     6.1059    2.6714    0.5260 C.3      1 ZINC001009116151    0.1200
19     C19     4.9947    1.6421    0.0855 C.3      1 ZINC001009116151   -0.1600
20     H20     5.1946    0.5829    0.2472 H        1 ZINC001009116151    0.1300
21     C21    -1.3296    1.9443    0.0189 C.3      1 ZINC001009116151   -0.0700
22     C22    -1.4285    2.8295   -1.2251 C.3      1 ZINC001009116151   -0.1100
23     C23    -2.7637    3.5764   -1.2147 C.3      1 ZINC001009116151   -0.1100
24     C24    -3.5550    3.1891    0.0362 C.3      1 ZINC001009116151   -0.0900
25     C25    -3.8141    1.6813    0.0293 C.3      1 ZINC001009116151   -0.1100
26     C26    -2.4789    0.9344    0.0189 C.3      1 ZINC001009116151   -0.0900
27     C27    -2.7519    3.5628    1.2837 C.3      1 ZINC001009116151   -0.1100
28     C28    -1.4166    2.8159    1.2733 C.3      1 ZINC001009116151   -0.1000
29     H29     1.1304    2.8682    0.0067 H        1 ZINC001009116151    0.4000
30     H30     2.4967    0.5526    0.8712 H        1 ZINC001009116151    0.0800
31     H31     2.4797    0.5621   -0.9086 H        1 ZINC001009116151    0.0700
32     H32     5.5359    3.5855   -2.5779 H        1 ZINC001009116151    0.0900
33     H33     4.7757    4.3748   -1.1616 H        1 ZINC001009116151    0.0800
34     H34     8.7989    3.8159    0.8048 H        1 ZINC001009116151    0.1100
35     H35     9.5572    1.5937    0.9987 H        1 ZINC001009116151    0.0900
36     H36     8.2687    1.2737   -0.2027 H        1 ZINC001009116151    0.0800
37     H37    10.4567    0.4772   -1.3780 H        1 ZINC001009116151    0.1300
38     H38    11.6343    2.5563   -2.2005 H        1 ZINC001009116151    0.1300
39     H39    10.1423    4.5817   -1.5113 H        1 ZINC001009116151    0.0900
40     H40    10.9903    4.1240   -0.0023 H        1 ZINC001009116151    0.0900
41     H41     6.9312    2.1434    1.0037 H        1 ZINC001009116151    0.0900
42     H42     5.6952    3.4244    1.1986 H        1 ZINC001009116151    0.0800
43     H43    -0.6097    3.5490   -1.2250 H        1 ZINC001009116151    0.0700
44     H44    -1.3664    2.2085   -2.1187 H        1 ZINC001009116151    0.0700
45     H45    -2.5791    4.6507   -1.2097 H        1 ZINC001009116151    0.0700
46     H46    -3.3359    3.3102   -2.1034 H        1 ZINC001009116151    0.0700
47     H47    -4.5063    3.7213    0.0436 H        1 ZINC001009116151    0.0700
48     H48    -4.3779    1.4054    0.9205 H        1 ZINC001009116151    0.0700
49     H49    -4.3863    1.4150   -0.8595 H        1 ZINC001009116151    0.0700
50     H50    -2.4169    0.3134   -0.8748 H        1 ZINC001009116151    0.0700
51     H51    -2.4084    0.3037    0.9051 H        1 ZINC001009116151    0.0700
52     H52    -2.5672    4.6371    1.2887 H        1 ZINC001009116151    0.0700
53     H53    -3.3156    3.2869    2.1749 H        1 ZINC001009116151    0.0700
54     H54    -1.3462    2.1853    2.1596 H        1 ZINC001009116151    0.0700
55     H55    -0.5978    3.5354    1.2734 H        1 ZINC001009116151    0.0700
@<TRIPOS>BOND
1     1     2     2
2     2     3     am
3     2     21    1
4     3     4     1
5     3     29    1
6     4     5     1
7     4     30    1
8     4     31    1
9     5     6     1
10    5     19    1
11    5     7     1
12    7     8     1
13    7     19    1
14    7     9     1
15    9     10    1
16    9     32    1
17    9     33    1
18    10    11    am
19    10    18    1
20    11    12    2
21    11    13    1
22    13    17    1
23    13    14    1
24    13    34    1
25    14    15    1
26    14    35    1
27    14    36    1
28    15    16    2
29    15    37    1
30    16    17    1
31    16    38    1
32    17    39    1
33    17    40    1
34    18    19    1
35    18    41    1
36    18    42    1
37    19    20    1
38    21    26    1
39    21    28    1
40    21    22    1
41    22    23    1
42    22    43    1
43    22    44    1
44    23    24    1
45    23    45    1
46    23    46    1
47    24    25    1
48    24    27    1
49    24    47    1
50    25    26    1
51    25    48    1
52    25    49    1
53    26    50    1
54    26    51    1
55    27    28    1
56    27    52    1
57    27    53    1
58    28    54    1
59    28    55    1
@<TRIPOS>SUBSTRUCTURE
1   ZINC001009116151 1     RESIDUE    1   A     ZIN   1
@<TRIPOS>MOLECULE
ZINC000013551438
46	49	0	0	0
SMALL
USER_CHARGES
@<TRIPOS>ATOM
1 C1       -0.3123     1.4067     0.1845 C.3    1 <0>       0.0300
2 O2       -0.2487    -0.0205     0.1521 O.3    1 <0>      -0.3200
3 C3        0.4461    -0.6303     1.1495 C.ar   1 <0>       0.1000
4 C4        1.0495     0.1355     2.1431 C.ar   1 <0>      -0.1800
5 C5        1.7567    -0.4667     3.1599 C.ar   1 <0>      -0.0900
6 C6        1.8729    -1.8523     3.2006 C.ar   1 <0>       0.0700
7 C7        1.2640    -2.6271     2.1987 C.ar   1 <0>      -0.0400
8 C8        0.5458    -2.0078     1.1763 C.ar   1 <0>      -0.1100
9 C9        1.5702    -4.0289     2.5251 C.2    1 <0>      -0.1200
10 C10       1.1466    -5.2282     1.7615 C.2    1 <0>       0.1700
11 C11      -0.1117    -5.4058     1.3169 C.2    1 <0>      -0.3000
12 S12      -0.1772    -6.9478     0.4679 S.3    1 <0>       0.2500
13 C13       1.4813    -7.2104     0.7862 C.2    1 <0>       0.2400
14 N14       2.1982    -8.3286     0.3817 N.am   1 <0>      -0.6200
15 C15       1.5856    -9.3061    -0.3151 C.2    1 <0>       0.5600
16 O16       0.4053    -9.2088    -0.5895 O.2    1 <0>      -0.5000
17 C17       2.3487   -10.4963    -0.7457 C.ar   1 <0>      -0.1400
18 C18       3.7028   -10.6138    -0.4273 C.ar   1 <0>      -0.0800
19 C19       4.4092   -11.7276    -0.8318 C.ar   1 <0>      -0.1300
20 C20       3.7784   -12.7268    -1.5516 C.ar   1 <0>      -0.0800
21 C21       2.4367   -12.6164    -1.8710 C.ar   1 <0>      -0.1300
22 C22       1.7172   -11.5106    -1.4676 C.ar   1 <0>      -0.0500
23 N23       1.9764    -6.2165     1.4524 N.2    1 <0>      -0.5000
24 C24       2.3139    -4.0128     3.6568 C.2    1 <0>       0.1300
25 C25       2.8548    -5.2331     4.3564 C.3    1 <0>      -0.0900
26 N26       2.5008    -2.7218     4.0685 N.pl3  1 <0>      -0.4800
27 C27       3.2579    -2.3209     5.2569 C.3    1 <0>       0.0800
28 H28       0.6963     1.8167     0.1318 H      1 <0>       0.0500
29 H29      -0.8945     1.7638    -0.6651 H      1 <0>       0.1000
30 H30      -0.7873     1.7283     1.1113 H      1 <0>       0.0500
31 H31       0.9627     1.2117     2.1160 H      1 <0>       0.1300
32 H32       2.2213     0.1369     3.9256 H      1 <0>       0.1200
33 H33       0.0771    -2.6013     0.4053 H      1 <0>       0.1300
34 H34      -0.9364    -4.7226     1.4564 H      1 <0>       0.1800
35 H35       3.1400    -8.4062     0.6006 H      1 <0>       0.4200
36 H36       4.1964    -9.8344     0.1342 H      1 <0>       0.1300
37 H37       5.4569   -11.8196    -0.5865 H      1 <0>       0.1300
38 H38       4.3360   -13.5967    -1.8659 H      1 <0>       0.1300
39 H39       1.9504   -13.3998    -2.4334 H      1 <0>       0.1300
40 H40       0.6699   -11.4258    -1.7172 H      1 <0>       0.1400
41 H41       3.8770    -5.4180     4.0262 H      1 <0>       0.0800
42 H42       2.8452    -5.0683     5.4338 H      1 <0>       0.0700
43 H43       2.2334    -6.0955     4.1152 H      1 <0>       0.0800
44 H44       4.3024    -2.1654     4.9869 H      1 <0>       0.0700
45 H45       2.8441    -1.3949     5.6561 H      1 <0>       0.0800
46 H46       3.1906    -3.1042     6.0119 H      1 <0>       0.0800
@<TRIPOS>BOND
1    1    2 1
2    1   28 1
3    1   29 1
4    1   30 1
5    2    3 1
6    3    8 ar
7    3    4 ar
8    4    5 ar
9    4   31 1
10    5    6 ar
11    5   32 1
12    6   26 1
13    6    7 ar
14    7    8 ar
15    7    9 1
16    8   33 1
17    9   10 1
18    9   24 2
19   10   23 1
20   10   11 2
21   11   12 1
22   11   34 1
23   12   13 1
24   13   14 1
25   13   23 2
26   14   15 am
27   14   35 1
28   15   16 2
29   15   17 1
30   17   22 ar
31   17   18 ar
32   18   19 ar
33   18   36 1
34   19   20 ar
35   19   37 1
36   20   21 ar
37   20   38 1
38   21   22 ar
39   21   39 1
40   22   40 1
41   24   25 1
42   24   26 1
43   25   41 1
44   25   42 1
45   25   43 1
46   26   27 1
47   27   44 1
48   27   45 1
49   27   46 1
@<TRIPOS>MOLECULE
ZINC001345966764
38	38	1	0	0
SMALL
USER_CHARGES
@<TRIPOS>ATOM
1      N1     -0.0178    1.4648    0.0101 N.3      1 ZINC001345966764   -0.8400
2      C2      0.0021   -0.0041    0.0020 C.3      1 ZINC001345966764    0.0200
3      C3      0.8260   -0.5095    1.1880 C.3      1 ZINC001345966764    0.2800
4      F4      2.1345   -0.0248    1.0872 F        1 ZINC001345966764   -0.1900
5      F5      0.2519   -0.0574    2.3811 F        1 ZINC001345966764   -0.1800
6      C6      0.8467   -2.0393    1.1796 C.3      1 ZINC001345966764    0.0800
7      N7      1.6356   -2.5232    2.3153 N.am     1 ZINC001345966764   -0.7000
8      C8      1.7931   -3.8474    2.5109 C.2      1 ZINC001345966764    0.5100
9      O9      1.2814   -4.6388    1.7465 O.2      1 ZINC001345966764   -0.5100
10     C10     2.5979   -4.3411    3.6695 C.2      1 ZINC001345966764    0.5100
11     O11     3.1096   -3.5497    4.4339 O.2      1 ZINC001345966764   -0.5100
12     N12     2.7553   -5.6652    3.8651 N.am     1 ZINC001345966764   -0.7000
13     C13     3.5442   -6.1492    5.0008 C.3      1 ZINC001345966764    0.1200
14     C14     3.5650   -7.6790    4.9924 C.3      1 ZINC001345966764    0.0600
15     H15     3.9987   -8.0468    4.0625 H        1 ZINC001345966764    0.0900
16     C16     4.3599   -8.2127    6.2046 C.3      1 ZINC001345966764   -0.1400
17     C17     3.5820   -9.4758    6.6370 C.3      1 ZINC001345966764   -0.1500
18     C18     2.4092   -9.5557    5.6348 C.3      1 ZINC001345966764    0.0300
19     H19     2.6645  -10.2129    4.8036 H        1 ZINC001345966764    0.1200
20     C20     1.1429  -10.0522    6.3354 C.3      1 ZINC001345966764    0.4600
21     F21     0.8029   -9.1687    7.3655 F        1 ZINC001345966764   -0.1700
22     F22     0.0941  -10.1175    5.4119 F        1 ZINC001345966764   -0.1700
23     F23     1.3737  -11.3245    6.8695 F        1 ZINC001345966764   -0.1700
24     O24     2.2294   -8.2009    5.1651 O.3      1 ZINC001345966764   -0.3500
25     H25     0.9191    1.8392    0.0032 H        1 ZINC001345966764    0.3500
26     H26    -0.5563    1.8234   -0.7642 H        1 ZINC001345966764    0.3600
27     H27    -1.0174   -0.3817    0.0806 H        1 ZINC001345966764    0.1100
28     H28     0.4494   -0.3563   -0.9275 H        1 ZINC001345966764    0.0700
29     H29    -0.1727   -2.4169    1.2582 H        1 ZINC001345966764    0.1100
30     H30     1.2940   -2.3915    0.2501 H        1 ZINC001345966764    0.1100
31     H31     2.0446   -1.8907    2.9264 H        1 ZINC001345966764    0.4200
32     H32     2.3463   -6.2978    3.2541 H        1 ZINC001345966764    0.4200
33     H33     4.5637   -5.7715    4.9222 H        1 ZINC001345966764    0.1000
34     H34     3.0969   -5.7970    5.9303 H        1 ZINC001345966764    0.0900
35     H35     5.3767   -8.4725    5.9102 H        1 ZINC001345966764    0.0900
36     H36     4.3703   -7.4767    7.0086 H        1 ZINC001345966764    0.0900
37     H37     4.2143  -10.3600    6.5564 H        1 ZINC001345966764    0.1000
38     H38     3.2079   -9.3642    7.6547 H        1 ZINC001345966764    0.0900
@<TRIPOS>BOND
1     1     2     1
2     1     25    1
3     1     26    1
4     2     3     1
5     2     27    1
6     2     28    1
7     3     4     1
8     3     5     1
9     3     6     1
10    6     7     1
11    6     29    1
12    6     30    1
13    7     8     am
14    7     31    1
15    8     9     2
16    8     10    1
17    10    11    2
18    10    12    am
19    12    13    1
20    12    32    1
21    13    14    1
22    13    33    1
23    13    34    1
24    14    15    1
25    14    24    1
26    14    16    1
27    16    17    1
28    16    35    1
29    16    36    1
30    17    18    1
31    17    37    1
32    17    38    1
33    18    19    1
34    18    20    1
35    18    24    1
36    20    21    1
37    20    22    1
38    20    23    1
@<TRIPOS>SUBSTRUCTURE
1   ZINC001345966764 1     RESIDUE    1   A     ZIN   1
@<TRIPOS>MOLECULE
ZINC001231746020
38	39	1	0	0
SMALL
USER_CHARGES
@<TRIPOS>ATOM
1      C1     -0.0127    1.0858    0.0080 C.3      1 ZINC001231746020   -0.1500
2      C2     -0.7288    1.5792    1.2668 C.3      1 ZINC001231746020   -0.0900
3      H3     -1.7532    1.2066    1.2740 H        1 ZINC001231746020    0.0800
4      C4     -0.0026    1.0818    2.4880 C.3      1 ZINC001231746020   -0.1400
5      C5     -0.9280    0.8265    3.6913 C.3      1 ZINC001231746020   -0.0100
6      N6     -1.9447    1.8817    3.8894 N.4      1 ZINC001231746020   -0.3800
7      H7     -2.6968    1.7407    3.2317 H        1 ZINC001231746020    0.4100
8      C8     -2.4785    1.7810    5.2542 C.3      1 ZINC001231746020    0.0700
9      C9     -3.6013    2.7709    5.4288 C.ar     1 ZINC001231746020   -0.3100
10     C10    -4.9009    2.3980    5.1406 C.ar     1 ZINC001231746020   -0.0300
11     C11    -5.9331    3.3041    5.3003 C.ar     1 ZINC001231746020   -0.1600
12     Cl12   -7.5648    2.8351    4.9381 Cl       1 ZINC001231746020   -0.0800
13     C13    -5.6632    4.5890    5.7500 C.ar     1 ZINC001231746020    0.3100
14     O14    -6.6761    5.4818    5.9084 O.3      1 ZINC001231746020   -0.6300
15     C15    -4.3575    4.9606    6.0381 C.ar     1 ZINC001231746020   -0.2100
16     Br16   -3.9848    6.7103    6.6511 Br       1 ZINC001231746020   -0.0600
17     C17    -3.3304    4.0488    5.8824 C.ar     1 ZINC001231746020   -0.0200
18     C18    -1.3956    3.2019    3.6962 C.3      1 ZINC001231746020   -0.0200
19     C19    -1.7029    3.6342    2.2533 C.3      1 ZINC001231746020   -0.1800
20     C20    -0.7369    3.1283    1.2859 C.3      1 ZINC001231746020    0.1000
21     H21    -0.9973    3.4971    0.2938 H        1 ZINC001231746020    0.0700
22     O22     0.5664    3.6001    1.6336 O.3      1 ZINC001231746020   -0.5600
23     H23     0.0021   -0.0041    0.0020 H        1 ZINC001231746020    0.0600
24     H24     1.0099    1.4631    0.0003 H        1 ZINC001231746020    0.0700
25     H25    -0.5399    1.4469   -0.8751 H        1 ZINC001231746020    0.0600
26     H26     0.5072    0.1519    2.2363 H        1 ZINC001231746020    0.1000
27     H27     0.7444    1.8217    2.7754 H        1 ZINC001231746020    0.1000
28     H28    -1.4377   -0.1256    3.5435 H        1 ZINC001231746020    0.1200
29     H29    -0.3180    0.7564    4.5918 H        1 ZINC001231746020    0.1200
30     H30    -2.8541    0.7719    5.4240 H        1 ZINC001231746020    0.1200
31     H31    -1.6869    1.9994    5.9710 H        1 ZINC001231746020    0.1200
32     H32    -5.1102    1.3979    4.7906 H        1 ZINC001231746020    0.1100
33     H33    -2.3147    4.3359    6.1114 H        1 ZINC001231746020    0.1100
34     H34    -1.8562    3.8990    4.3962 H        1 ZINC001231746020    0.1400
35     H35    -0.3173    3.1796    3.8537 H        1 ZINC001231746020    0.1300
36     H36    -2.6939    3.2703    1.9820 H        1 ZINC001231746020    0.0900
37     H37    -1.7054    4.7232    2.2067 H        1 ZINC001231746020    0.1100
38     H38     0.6401    4.5637    1.6661 H        1 ZINC001231746020    0.3900
@<TRIPOS>BOND
1     1     2     1
2     1     23    1
3     1     24    1
4     1     25    1
5     2     3     1
6     2     20    1
7     2     4     1
8     4     5     1
9     4     26    1
10    4     27    1
11    5     6     1
12    5     28    1
13    5     29    1
14    6     7     1
15    6     8     1
16    6     18    1
17    8     9     1
18    8     30    1
19    8     31    1
20    9     17    ar
21    9     10    ar
22    10    11    ar
23    10    32    1
24    11    12    1
25    11    13    ar
26    13    14    1
27    13    15    ar
28    15    16    1
29    15    17    ar
30    17    33    1
31    18    19    1
32    18    34    1
33    18    35    1
34    19    20    1
35    19    36    1
36    19    37    1
37    20    21    1
38    20    22    1
39    22    38    1
@<TRIPOS>SUBSTRUCTURE
1   ZINC001231746020 1     RESIDUE    1   A     ZIN   1
@<TRIPOS>MOLECULE
ZINC000599228306
44	44	1	0	0
SMALL
USER_CHARGES
@<TRIPOS>ATOM
1      C1    -10.9498   -7.1049   -2.6973 C.3      1 ZINC000599228306    0.0400
2      O2     -9.7903   -6.2472   -2.8652 O.3      1 ZINC000599228306   -0.3500
3      C3     -8.8090   -6.3589   -1.9488 C.2      1 ZINC000599228306    0.5100
4      O4     -8.9191   -7.1512   -1.0344 O.2      1 ZINC000599228306   -0.4800
5      C5     -7.6005   -5.5188   -2.0557 C.ar     1 ZINC000599228306   -0.1500
6      C6     -7.4730   -4.6027   -3.1023 C.ar     1 ZINC000599228306   -0.0100
7      C7     -6.3393   -3.8199   -3.1961 C.ar     1 ZINC000599228306    0.0700
8      F8     -6.2146   -2.9333   -4.2079 F        1 ZINC000599228306   -0.1200
9      C9     -5.3291   -3.9409   -2.2546 C.ar     1 ZINC000599228306    0.0100
10     C10    -5.4479   -4.8453   -1.2158 C.ar     1 ZINC000599228306   -0.7100
11     S11    -4.1576   -4.9900   -0.0246 S.o2     1 ZINC000599228306    2.7000
12     O12    -3.8891   -6.3790    0.1092 O.2      1 ZINC000599228306   -0.9200
13     O13    -3.1670   -4.0384   -0.3884 O.2      1 ZINC000599228306   -0.9300
14     N14    -4.7742   -4.4907    1.4290 N.am     1 ZINC000599228306   -1.1000
15     C15    -5.1803   -3.0951    1.6119 C.3      1 ZINC000599228306    0.1600
16     H16    -4.6523   -2.4662    0.8950 H        1 ZINC000599228306    0.1300
17     C17    -6.6884   -2.9691    1.3872 C.3      1 ZINC000599228306   -0.1700
18     C18    -4.8423   -2.6530    3.0124 C.2      1 ZINC000599228306    0.4700
19     O19    -4.3163   -3.4246    3.7791 O.2      1 ZINC000599228306   -0.4900
20     O20    -5.1257   -1.4021    3.4081 O.3      1 ZINC000599228306   -0.3400
21     C21    -4.7722   -1.0456    4.7705 C.3      1 ZINC000599228306    0.1200
22     C22    -3.2631   -1.2062    4.9645 C.3      1 ZINC000599228306   -0.1900
23     C23    -5.1688    0.4079    5.0367 C.3      1 ZINC000599228306   -0.1400
24     C24    -5.5123   -1.9630    5.7461 C.3      1 ZINC000599228306   -0.1800
25     C25    -6.5795   -5.6320   -1.1060 C.ar     1 ZINC000599228306    0.2500
26     F26    -6.6944   -6.5151   -0.0900 F        1 ZINC000599228306   -0.0900
27     H27   -11.6618   -6.9146   -3.5003 H        1 ZINC000599228306    0.1100
28     H28   -10.6372   -8.1487   -2.7286 H        1 ZINC000599228306    0.0700
29     H29   -11.4207   -6.8954   -1.7368 H        1 ZINC000599228306    0.0700
30     H30    -8.2591   -4.5071   -3.8367 H        1 ZINC000599228306    0.1700
31     H31    -4.4448   -3.3260   -2.3331 H        1 ZINC000599228306    0.1800
32     H32    -4.8666   -5.1224    2.1593 H        1 ZINC000599228306    0.4300
33     H33    -6.9905   -1.9306    1.5233 H        1 ZINC000599228306    0.0900
34     H34    -6.9328   -3.2888    0.3742 H        1 ZINC000599228306    0.0700
35     H35    -7.2163   -3.5980    2.1041 H        1 ZINC000599228306    0.0800
36     H36    -2.7358   -0.5527    4.2695 H        1 ZINC000599228306    0.0600
37     H37    -2.9977   -0.9387    5.9873 H        1 ZINC000599228306    0.0700
38     H38    -2.9805   -2.2418    4.7749 H        1 ZINC000599228306    0.0800
39     H39    -6.2439    0.5223    4.8985 H        1 ZINC000599228306    0.0700
40     H40    -4.9034    0.6755    6.0595 H        1 ZINC000599228306    0.0800
41     H41    -4.6415    1.0615    4.3417 H        1 ZINC000599228306    0.0700
42     H42    -5.2297   -2.9985    5.5565 H        1 ZINC000599228306    0.0800
43     H43    -5.2469   -1.6954    6.7689 H        1 ZINC000599228306    0.0700
44     H44    -6.5874   -1.8486    5.6079 H        1 ZINC000599228306    0.0600
@<TRIPOS>BOND
1     1     2     1
2     1     27    1
3     1     28    1
4     1     29    1
5     2     3     1
6     3     4     2
7     3     5     1
8     5     25    ar
9     5     6     ar
10    6     7     ar
11    6     30    1
12    7     8     1
13    7     9     ar
14    9     10    ar
15    9     31    1
16    10    11    1
17    10    25    ar
18    11    12    2
19    11    13    2
20    11    14    am
21    14    15    1
22    14    32    1
23    15    16    1
24    15    17    1
25    15    18    1
26    17    33    1
27    17    34    1
28    17    35    1
29    18    19    2
30    18    20    1
31    20    21    1
32    21    22    1
33    21    23    1
34    21    24    1
35    22    36    1
36    22    37    1
37    22    38    1
38    23    39    1
39    23    40    1
40    23    41    1
41    24    42    1
42    24    43    1
43    24    44    1
44    25    26    1
@<TRIPOS>SUBSTRUCTURE
1   ZINC000599228306 1     RESIDUE    1   A     ZIN   1
@<TRIPOS>MOLECULE
ZINC000980108339
53	56	1	0	0
SMALL
USER_CHARGES
@<TRIPOS>ATOM
1      C1     -0.0178    1.4608    0.0101 C.3      1 ZINC000980108339    0.1200
2      N2      0.0021   -0.0041    0.0020 N.am     1 ZINC000980108339   -0.6400
3      C3     -1.1848   -0.8723    0.0028 C.3      1 ZINC000980108339    0.1100
4      C4     -0.5994   -2.2978   -0.0076 C.3      1 ZINC000980108339    0.1000
5      H5     -0.9018   -2.8422    0.8870 H        1 ZINC000980108339    0.1200
6      C6     -1.0319   -3.0381   -1.2470 C.2      1 ZINC000980108339    0.5000
7      O7     -0.2756   -3.1354   -2.1901 O.2      1 ZINC000980108339   -0.5200
8      N8     -2.2590   -3.5921   -1.3073 N.am     1 ZINC000980108339   -0.7200
9      C9     -2.6794   -4.3118   -2.5120 C.3      1 ZINC000980108339    0.1300
10     C10    -4.1034   -4.8379   -2.3211 C.3      1 ZINC000980108339   -0.1200
11     H11    -4.2540   -5.3085   -1.3495 H        1 ZINC000980108339    0.1000
12     C12    -5.1921   -3.8148   -2.6854 C.3      1 ZINC000980108339   -0.1400
13     C13    -5.9690   -4.9834   -3.3146 C.3      1 ZINC000980108339    0.1200
14     H14    -6.4607   -4.7260   -4.2527 H        1 ZINC000980108339    0.1100
15     N15    -6.8595   -5.6694   -2.3751 N.am     1 ZINC000980108339   -0.7200
16     C16    -7.9367   -6.3374   -2.8331 C.2      1 ZINC000980108339    0.5200
17     O17    -8.1689   -6.3706   -4.0231 O.2      1 ZINC000980108339   -0.5300
18     C18    -8.8528   -7.0432   -1.8667 C.3      1 ZINC000980108339   -0.1100
19     C19    -9.9878   -7.7176   -2.6398 C.3      1 ZINC000980108339   -0.1300
20     H20    -9.7430   -8.0339   -3.6538 H        1 ZINC000980108339    0.1200
21     C21   -11.4119   -7.2229   -2.3786 C.3      1 ZINC000980108339   -0.1700
22     C22   -10.9650   -8.5864   -1.8453 C.3      1 ZINC000980108339   -0.1200
23     H23   -10.7995   -8.6773   -0.7718 H        1 ZINC000980108339    0.1000
24     C24   -11.5246   -9.8324   -2.5346 C.3      1 ZINC000980108339   -0.1300
25     C25   -11.0776  -11.1953   -2.0018 C.3      1 ZINC000980108339   -0.1800
26     C26   -12.5016  -10.7009   -1.7396 C.3      1 ZINC000980108339   -0.1800
27     C27    -4.6109   -5.6841   -3.5006 C.3      1 ZINC000980108339   -0.1400
28     N28     0.8551   -2.0814   -0.0132 N.am     1 ZINC000980108339   -0.7200
29     C29     1.1042   -0.7652   -0.0131 C.2      1 ZINC000980108339    0.7000
30     O30     2.2289   -0.3034   -0.0171 O.2      1 ZINC000980108339   -0.5800
31     H31     1.0048    1.8381    0.0023 H        1 ZINC000980108339    0.0900
32     H32    -0.5450    1.8219   -0.8730 H        1 ZINC000980108339    0.0600
33     H33    -0.5280    1.8123    0.9069 H        1 ZINC000980108339    0.0600
34     H34    -1.7778   -0.7088    0.9027 H        1 ZINC000980108339    0.1000
35     H35    -1.7861   -0.6991   -0.8896 H        1 ZINC000980108339    0.0900
36     H36    -2.8639   -3.5144   -0.5529 H        1 ZINC000980108339    0.4000
37     H37    -2.6534   -3.6359   -3.3667 H        1 ZINC000980108339    0.0700
38     H38    -2.0038   -5.1485   -2.6898 H        1 ZINC000980108339    0.0700
39     H39    -5.6878   -3.3773   -1.8188 H        1 ZINC000980108339    0.0800
40     H40    -4.8650   -3.0681   -3.4090 H        1 ZINC000980108339    0.1000
41     H41    -6.6738   -5.6429   -1.4234 H        1 ZINC000980108339    0.4000
42     H42    -8.2895   -7.7972   -1.3169 H        1 ZINC000980108339    0.1000
43     H43    -9.2699   -6.3192   -1.1668 H        1 ZINC000980108339    0.1000
44     H44   -11.5401   -6.4170   -1.6559 H        1 ZINC000980108339    0.0900
45     H45   -12.1040   -7.2141   -3.2206 H        1 ZINC000980108339    0.1000
46     H46   -11.6909   -9.7412   -3.6080 H        1 ZINC000980108339    0.1000
47     H47   -10.9497  -12.0010   -2.7248 H        1 ZINC000980108339    0.0900
48     H48   -10.3850  -11.2041   -1.1603 H        1 ZINC000980108339    0.0900
49     H49   -12.7458  -10.3845   -0.7255 H        1 ZINC000980108339    0.0900
50     H50   -13.3105  -11.1813   -2.2900 H        1 ZINC000980108339    0.0900
51     H51    -4.1242   -5.4488   -4.4471 H        1 ZINC000980108339    0.1000
52     H52    -4.6392   -6.7536   -3.2924 H        1 ZINC000980108339    0.0800
53     H53     1.5273   -2.7806   -0.0201 H        1 ZINC000980108339    0.4400
@<TRIPOS>BOND
1     1     2     1
2     1     31    1
3     1     32    1
4     1     33    1
5     2     29    am
6     2     3     1
7     3     4     1
8     3     34    1
9     3     35    1
10    4     5     1
11    4     6     1
12    4     28    1
13    6     7     2
14    6     8     am
15    8     9     1
16    8     36    1
17    9     10    1
18    9     37    1
19    9     38    1
20    10    11    1
21    10    27    1
22    10    12    1
23    12    13    1
24    12    39    1
25    12    40    1
26    13    14    1
27    13    15    1
28    13    27    1
29    15    16    am
30    15    41    1
31    16    17    2
32    16    18    1
33    18    19    1
34    18    42    1
35    18    43    1
36    19    20    1
37    19    22    1
38    19    21    1
39    21    22    1
40    21    44    1
41    21    45    1
42    22    23    1
43    22    24    1
44    24    26    1
45    24    25    1
46    24    46    1
47    25    26    1
48    25    47    1
49    25    48    1
50    26    49    1
51    26    50    1
52    27    51    1
53    27    52    1
54    28    29    am
55    28    53    1
56    29    30    2
@<TRIPOS>SUBSTRUCTURE
1   ZINC000980108339 1     RESIDUE    1   A     ZIN   1
@<TRIPOS>MOLECULE
ZINC000898967786
45	48	1	0	0
SMALL
USER_CHARGES
@<TRIPOS>ATOM
1      C1     -0.0214    1.4898    0.0153 C.3      1 ZINC000898967786   -0.0800
2      C2      0.0016   -0.0170    0.0015 C.2      1 ZINC000898967786    0.0900
3      C3      0.0088   -0.7950   -1.1031 C.2      1 ZINC000898967786   -0.1000
4      C4     -0.0049   -0.3187   -2.5327 C.3      1 ZINC000898967786    0.2200
5      N5     -1.3904   -0.1864   -2.9901 N.am     1 ZINC000898967786   -0.7400
6      C6     -1.6487    0.2285   -4.2462 C.2      1 ZINC000898967786    0.7100
7      O7     -0.7370    0.5792   -4.9701 O.2      1 ZINC000898967786   -0.5800
8      N8     -2.9176    0.2545   -4.6997 N.am     1 ZINC000898967786   -0.6300
9      C9     -3.2141    0.5880   -6.1019 C.3      1 ZINC000898967786    0.0900
10     C10    -4.2912    1.6785   -6.1222 C.3      1 ZINC000898967786    0.0500
11     O11    -5.3991    1.2609   -5.3210 O.3      1 ZINC000898967786   -0.3700
12     C12    -5.0839    1.0716   -3.9395 C.3      1 ZINC000898967786    0.1400
13     H13    -4.6751    1.9951   -3.5295 H        1 ZINC000898967786    0.0700
14     C14    -6.3330    0.6954   -3.1851 C.2      1 ZINC000898967786   -0.1100
15     C15    -7.2454   -0.1422   -3.6804 C.2      1 ZINC000898967786   -0.1800
16     S16    -8.5550   -0.3393   -2.5230 S.3      1 ZINC000898967786    0.1100
17     C17    -7.7665    0.7593   -1.3983 C.2      1 ZINC000898967786   -0.2100
18     C18    -6.6177    1.1883   -1.9233 C.2      1 ZINC000898967786   -0.1300
19     C19    -4.0470   -0.0556   -3.8088 C.3      1 ZINC000898967786    0.0900
20     N20     0.0313   -2.0963   -0.6807 N.pl3    1 ZINC000898967786   -0.3500
21     C21     0.0466   -3.2847   -1.3517 C.2      1 ZINC000898967786    0.0600
22     C22     0.0678   -4.4539   -0.6782 C.2      1 ZINC000898967786   -0.1400
23     C23     0.0740   -4.4627    0.7265 C.2      1 ZINC000898967786   -0.1000
24     C24     0.0589   -3.2854    1.4077 C.2      1 ZINC000898967786   -0.0800
25     C25     0.0373   -2.0727    0.6899 C.2      1 ZINC000898967786    0.2400
26     N26     0.0241   -0.8055    1.0786 N.2      1 ZINC000898967786   -0.4900
27     H27     1.0006    1.8688    0.0092 H        1 ZINC000898967786    0.0800
28     H28    -0.5490    1.8532   -0.8665 H        1 ZINC000898967786    0.0700
29     H29    -0.5323    1.8371    0.9133 H        1 ZINC000898967786    0.0800
30     H30     0.4933    0.6486   -2.5983 H        1 ZINC000898967786    0.1000
31     H31     0.5178   -1.0399   -3.1610 H        1 ZINC000898967786    0.0700
32     H32    -2.1218   -0.3973   -2.3889 H        1 ZINC000898967786    0.4000
33     H33    -2.3115    0.9543   -6.5909 H        1 ZINC000898967786    0.1100
34     H34    -3.5793   -0.2984   -6.6207 H        1 ZINC000898967786    0.0800
35     H35    -3.8796    2.6043   -5.7201 H        1 ZINC000898967786    0.0600
36     H36    -4.6243    1.8423   -7.1471 H        1 ZINC000898967786    0.1100
37     H37    -7.1889   -0.6251   -4.6447 H        1 ZINC000898967786    0.1700
38     H38    -8.1512    1.0399   -0.4290 H        1 ZINC000898967786    0.1700
39     H39    -5.9633    1.8745   -1.4065 H        1 ZINC000898967786    0.1400
40     H40    -4.4986   -1.0050   -4.0965 H        1 ZINC000898967786    0.0800
41     H41    -3.6950   -0.1131   -2.7788 H        1 ZINC000898967786    0.0900
42     H42     0.0414   -3.2893   -2.4317 H        1 ZINC000898967786    0.1600
43     H43     0.0798   -5.3872   -1.2216 H        1 ZINC000898967786    0.1500
44     H44     0.0902   -5.3998    1.2631 H        1 ZINC000898967786    0.1500
45     H45     0.0631   -3.2800    2.4877 H        1 ZINC000898967786    0.1500
@<TRIPOS>BOND
1     1     2     1
2     1     27    1
3     1     28    1
4     1     29    1
5     2     26    1
6     2     3     2
7     3     4     1
8     3     20    1
9     4     5     1
10    4     30    1
11    4     31    1
12    5     6     am
13    5     32    1
14    6     7     2
15    6     8     am
16    8     19    1
17    8     9     1
18    9     10    1
19    9     33    1
20    9     34    1
21    10    11    1
22    10    35    1
23    10    36    1
24    11    12    1
25    12    13    1
26    12    14    1
27    12    19    1
28    14    18    1
29    14    15    2
30    15    16    1
31    15    37    1
32    16    17    1
33    17    18    2
34    17    38    1
35    18    39    1
36    19    40    1
37    19    41    1
38    20    25    1
39    20    21    1
40    21    22    2
41    21    42    1
42    22    23    1
43    22    43    1
44    23    24    2
45    23    44    1
46    24    25    1
47    24    45    1
48    25    26    2
@<TRIPOS>SUBSTRUCTURE
1   ZINC000898967786 1     RESIDUE    1   A     ZIN   1
@<TRIPOS>MOLECULE
ZINC001105194920
47	49	1	0	0
SMALL
USER_CHARGES
@<TRIPOS>ATOM
1      C1     -0.0064    1.4299   -0.1135 C.3      1 ZINC001105194920    0.0300
2      O2      0.0120    0.0010   -0.1181 O.3      1 ZINC001105194920   -0.3900
3      C3      0.6674   -0.5755    1.0133 C.3      1 ZINC001105194920    0.0700
4      C4      0.6271   -2.1010    0.9034 C.3      1 ZINC001105194920    0.0900
5      H5      1.0474   -2.5416    1.8075 H        1 ZINC001105194920    0.0900
6      C6     -0.8223   -2.5623    0.7375 C.3      1 ZINC001105194920   -0.1800
7      N7      1.4136   -2.5291   -0.2612 N.3      1 ZINC001105194920   -0.6800
8      C8      1.8985   -3.9054   -0.0919 C.3      1 ZINC001105194920    0.1400
9      C9      2.6990   -4.3085   -1.3034 C.2      1 ZINC001105194920   -0.0200
10     C10     4.0434   -4.2409   -1.4449 C.2      1 ZINC001105194920   -0.0200
11     N11     4.3155   -4.7044   -2.6867 N.pl3    1 ZINC001105194920   -0.2800
12     C12     5.6467   -4.8191   -3.2875 C.3      1 ZINC001105194920    0.1000
13     C13     6.7500   -4.0982   -2.4920 C.3      1 ZINC001105194920    0.1100
14     N14     6.9350   -5.3785   -1.7817 N.am     1 ZINC001105194920   -0.6300
15     C15     7.4179   -5.7267   -0.5725 C.2      1 ZINC001105194920    0.6200
16     O16     7.8213   -4.8704    0.1904 O.2      1 ZINC001105194920   -0.5400
17     C17     7.4571   -7.1488   -0.1743 C.ar     1 ZINC001105194920   -0.0600
18     N18     6.9212   -8.0779   -0.9605 N.ar     1 ZINC001105194920   -0.3700
19     C19     6.9578   -9.3453   -0.6023 C.ar     1 ZINC001105194920   -0.0200
20     C20     7.5537   -9.7188    0.5938 C.ar     1 ZINC001105194920    0.1500
21     N21     8.0896   -8.8074    1.3850 N.ar     1 ZINC001105194920   -0.5100
22     C22     8.0656   -7.5269    1.0339 C.ar     1 ZINC001105194920    0.4200
23     N23     8.6260   -6.5694    1.8592 N.pl3    1 ZINC001105194920   -0.8100
24     C24     6.3789   -6.1245   -2.9272 C.3      1 ZINC001105194920    0.1100
25     N25     3.2038   -5.0275   -3.2492 N.2      1 ZINC001105194920   -0.0800
26     N26     2.2212   -4.8088   -2.4483 N.2      1 ZINC001105194920   -0.2600
27     H27     1.0165    1.8064   -0.1080 H        1 ZINC001105194920    0.0400
28     H28    -0.5212    1.7895   -1.0044 H        1 ZINC001105194920    0.0800
29     H29    -0.5286    1.7836    0.7755 H        1 ZINC001105194920    0.0400
30     H30     1.7043   -0.2406    1.0422 H        1 ZINC001105194920    0.0600
31     H31     0.1592   -0.2634    1.9256 H        1 ZINC001105194920    0.0500
32     H32    -1.2425   -2.1216   -0.1666 H        1 ZINC001105194920    0.0700
33     H33    -0.8510   -3.6491    0.6592 H        1 ZINC001105194920    0.0500
34     H34    -1.4058   -2.2447    1.6016 H        1 ZINC001105194920    0.0600
35     H35     0.8795   -2.4359   -1.1122 H        1 ZINC001105194920    0.3500
36     H36     2.5289   -3.9619    0.7955 H        1 ZINC001105194920    0.0900
37     H37     1.0488   -4.5784    0.0225 H        1 ZINC001105194920    0.0500
38     H38     4.7556   -3.8876   -0.7139 H        1 ZINC001105194920    0.1800
39     H39     5.6527   -4.5925   -4.3537 H        1 ZINC001105194920    0.1500
40     H40     7.6072   -3.8038   -3.0975 H        1 ZINC001105194920    0.1200
41     H41     6.3794   -3.2932   -1.8573 H        1 ZINC001105194920    0.1000
42     H42     6.5214  -10.0973   -1.2429 H        1 ZINC001105194920    0.1800
43     H43     7.5791  -10.7601    0.8793 H        1 ZINC001105194920    0.1800
44     H44     9.1056   -6.8384    2.6582 H        1 ZINC001105194920    0.4000
45     H45     8.5395   -5.6286    1.6391 H        1 ZINC001105194920    0.4300
46     H46     5.7119   -6.9374   -2.6400 H        1 ZINC001105194920    0.1100
47     H47     7.1271   -6.4254   -3.6605 H        1 ZINC001105194920    0.1200
@<TRIPOS>BOND
1     1     2     1
2     1     27    1
3     1     28    1
4     1     29    1
5     2     3     1
6     3     4     1
7     3     30    1
8     3     31    1
9     4     5     1
10    4     6     1
11    4     7     1
12    6     32    1
13    6     33    1
14    6     34    1
15    7     8     1
16    7     35    1
17    8     9     1
18    8     36    1
19    8     37    1
20    9     26    1
21    9     10    2
22    10    11    1
23    10    38    1
24    11    12    1
25    11    25    1
26    12    24    1
27    12    13    1
28    12    39    1
29    13    14    1
30    13    40    1
31    13    41    1
32    14    15    am
33    14    24    1
34    15    16    2
35    15    17    1
36    17    22    ar
37    17    18    ar
38    18    19    ar
39    19    20    ar
40    19    42    1
41    20    21    ar
42    20    43    1
43    21    22    ar
44    22    23    1
45    23    44    1
46    23    45    1
47    24    46    1
48    24    47    1
49    25    26    2
@<TRIPOS>SUBSTRUCTURE
1   ZINC001105194920 1     RESIDUE    1   A     ZIN   1
@<TRIPOS>MOLECULE
ZINC000338927927
39	39	0	0	0
SMALL
USER_CHARGES
@<TRIPOS>ATOM
1 C1       -0.0405     1.5172     0.0028 C.3    1 <0>      -0.1600
2 C2       -0.0119    -0.0125    -0.0003 C.3    1 <0>      -0.1100
3 C3        0.7361    -0.5111     1.2377 C.3    1 <0>      -0.1000
4 H4        1.7269    -0.0579     1.2706 H      1 <0>       0.1400
5 C5        0.8715    -2.0106     1.1728 C.2    1 <0>       0.5200
6 O6        0.3913    -2.7013     2.0465 O.2    1 <0>      -0.4700
7 N7        1.5263    -2.5842     0.1438 N.am   1 <0>      -0.6700
8 C8        1.7361    -3.9675     0.1320 C.ar   1 <0>       0.2200
9 C9        2.9091    -4.4878    -0.3988 C.ar   1 <0>      -0.2300
10 C10       3.1173    -5.8562    -0.4108 C.ar   1 <0>       0.1700
11 F11       4.2592    -6.3602    -0.9277 F      1 <0>      -0.1300
12 C12       2.1579    -6.7084     0.1064 C.ar   1 <0>      -0.2500
13 C13       0.9829    -6.1920     0.6385 C.ar   1 <0>       0.2600
14 N14       0.0144    -7.0527     1.1601 N.pl3  1 <0>      -0.7400
15 C15       0.2373    -8.5006     1.1463 C.3    1 <0>       0.0800
16 C16      -0.9667    -9.2079     1.7713 C.3    1 <0>       0.4500
17 F17      -2.1181    -8.9063     1.0361 F      1 <0>      -0.1800
18 F18      -0.7539   -10.5906     1.7582 F      1 <0>      -0.1700
19 F19      -1.1292    -8.7736     3.0913 F      1 <0>      -0.1800
20 C20       0.7746    -4.8200     0.6561 C.ar   1 <0>      -0.2000
21 C21      -0.0323    -0.1293     2.4766 C.2    1 <0>       0.4600
22 O22      -0.4293    -0.9868     3.2295 O.2    1 <0>      -0.4600
23 O23      -0.2757     1.1634     2.7436 O.3    1 <0>      -0.3500
24 C24      -1.0215     1.4574     3.9542 C.3    1 <0>       0.0300
25 H25       0.9800     1.8998    -0.0108 H      1 <0>       0.0600
26 H26      -0.5735     1.8724    -0.8792 H      1 <0>       0.0600
27 H27      -0.5486     1.8693     0.9006 H      1 <0>       0.0800
28 H28      -1.0325    -0.3950     0.0132 H      1 <0>       0.0800
29 H29       0.4962    -0.3645    -0.8981 H      1 <0>       0.0800
30 H30       1.8520    -2.0380    -0.5886 H      1 <0>       0.4200
31 H31       3.6592    -3.8243    -0.8030 H      1 <0>       0.1400
32 H32       2.3223    -7.7758     0.0961 H      1 <0>       0.1400
33 H33      -0.8057    -6.6918     1.5314 H      1 <0>       0.4100
34 H34       0.3639    -8.8389     0.1179 H      1 <0>       0.1100
35 H35       1.1344    -8.7355     1.7191 H      1 <0>       0.1100
36 H36      -0.1381    -4.4169     1.0693 H      1 <0>       0.1500
37 H37      -1.1484     2.5358     4.0500 H      1 <0>       0.1000
38 H38      -1.9999     0.9796     3.9033 H      1 <0>       0.0600
39 H39      -0.4762     1.0776     4.8182 H      1 <0>       0.0600
@<TRIPOS>BOND
1    1    2 1
2    1   25 1
3    1   26 1
4    1   27 1
5    2    3 1
6    2   28 1
7    2   29 1
8    3    4 1
9    3    5 1
10    3   21 1
11    5    6 2
12    5    7 am
13    7    8 1
14    7   30 1
15    8   20 ar
16    8    9 ar
17    9   10 ar
18    9   31 1
19   10   11 1
20   10   12 ar
21   12   13 ar
22   12   32 1
23   13   14 1
24   13   20 ar
25   14   15 1
26   14   33 1
27   15   16 1
28   15   34 1
29   15   35 1
30   16   17 1
31   16   18 1
32   16   19 1
33   20   36 1
34   21   22 2
35   21   23 1
36   23   24 1
37   24   37 1
38   24   38 1
39   24   39 1
@<TRIPOS>MOLECULE
ZINC000637608314
57	59	1	0	0
SMALL
USER_CHARGES
@<TRIPOS>ATOM
1      C1     -0.0187    1.5258    0.0104 C.3      1 ZINC000637608314   -0.1400
2      C2      0.0021   -0.0041    0.0020 C.3      1 ZINC000637608314   -0.0400
3      C3      0.7421   -0.5109    1.2415 C.3      1 ZINC000637608314   -0.1500
4      C4     -1.4333   -0.5336    0.0129 C.3      1 ZINC000637608314   -0.1500
5      C5      0.7074   -0.4901   -1.2379 C.2      1 ZINC000637608314    0.1900
6      C6      1.2034    0.4074   -2.1213 C.2      1 ZINC000637608314   -0.2400
7      C7      1.8608   -0.0378   -3.2768 C.2      1 ZINC000637608314    0.0200
8      C8      1.9916   -1.3778   -3.4951 C.2      1 ZINC000637608314   -0.2400
9      C9      2.6942   -1.8832   -4.7288 C.3      1 ZINC000637608314    0.2100
10     N10     4.0991   -2.1541   -4.4143 N.am     1 ZINC000637608314   -0.7300
11     C11     4.9268   -2.6176   -5.3717 C.2      1 ZINC000637608314    0.7100
12     O12     4.5074   -2.8109   -6.4964 O.2      1 ZINC000637608314   -0.5900
13     N13     6.2193   -2.8669   -5.0823 N.am     1 ZINC000637608314   -0.6200
14     C14     6.7246   -2.6340   -3.7271 C.3      1 ZINC000637608314    0.2000
15     C15     6.5612   -3.8881   -2.9076 C.2      1 ZINC000637608314   -0.0400
16     C16     7.4691   -4.8734   -2.7878 C.2      1 ZINC000637608314   -0.1900
17     C17     6.9062   -5.8471   -1.9311 C.2      1 ZINC000637608314   -0.2200
18     C18     5.6880   -5.3986   -1.5785 C.2      1 ZINC000637608314   -0.0300
19     O19     5.4868   -4.2089   -2.1684 O.3      1 ZINC000637608314   -0.1700
20     C20     7.1189   -3.3707   -6.1230 C.3      1 ZINC000637608314    0.1300
21     C21     7.7739   -2.1918   -6.8455 C.3      1 ZINC000637608314    0.0700
22     H22     7.0061   -1.5132   -7.2170 H        1 ZINC000637608314    0.0900
23     C23     8.6299   -2.7085   -8.0217 C.3      1 ZINC000637608314   -0.1500
24     C24     9.8717   -1.7779   -7.9594 C.3      1 ZINC000637608314   -0.1600
25     C25     9.9981   -1.5581   -6.4309 C.3      1 ZINC000637608314    0.0500
26     O26     8.6451   -1.4947   -5.9472 O.3      1 ZINC000637608314   -0.3800
27     C27     1.4648   -2.2822   -2.5572 C.2      1 ZINC000637608314    0.5300
28     O28     1.5753   -3.4840   -2.7400 O.2      1 ZINC000637608314   -0.5400
29     N29     0.8435   -1.8235   -1.4541 N.am     1 ZINC000637608314   -0.6000
30     H30     1.0039    1.9031    0.0027 H        1 ZINC000637608314    0.0700
31     H31    -0.5459    1.8868   -0.8726 H        1 ZINC000637608314    0.0700
32     H32    -0.5289    1.8773    0.9072 H        1 ZINC000637608314    0.0700
33     H33     0.2319   -0.1594    2.1383 H        1 ZINC000637608314    0.0700
34     H34     0.7568   -1.6008    1.2356 H        1 ZINC000637608314    0.0600
35     H35     1.7647   -0.1336    1.2338 H        1 ZINC000637608314    0.0700
36     H36    -1.9605   -0.1726   -0.8702 H        1 ZINC000637608314    0.0700
37     H37    -1.4185   -1.6235    0.0069 H        1 ZINC000637608314    0.0600
38     H38    -1.9435   -0.1821    0.9097 H        1 ZINC000637608314    0.0700
39     H39     1.0926    1.4657   -1.9364 H        1 ZINC000637608314    0.1500
40     H40     2.2588    0.6725   -3.9864 H        1 ZINC000637608314    0.1400
41     H41     2.2147   -2.8008   -5.0697 H        1 ZINC000637608314    0.0800
42     H42     2.6365   -1.1296   -5.5142 H        1 ZINC000637608314    0.0800
43     H43     4.4337   -1.9999   -3.5169 H        1 ZINC000637608314    0.4000
44     H44     7.7800   -2.3655   -3.7739 H        1 ZINC000637608314    0.1200
45     H45     6.1634   -1.8221   -3.2646 H        1 ZINC000637608314    0.0900
46     H46     8.4412   -4.9133   -3.2566 H        1 ZINC000637608314    0.1500
47     H47     7.3659   -6.7734   -1.6197 H        1 ZINC000637608314    0.1500
48     H48     4.9916   -5.9070   -0.9283 H        1 ZINC000637608314    0.2000
49     H49     7.8903   -3.9914   -5.6671 H        1 ZINC000637608314    0.0800
50     H50     6.5503   -3.9648   -6.8384 H        1 ZINC000637608314    0.1000
51     H51     8.9163   -3.7486   -7.8655 H        1 ZINC000637608314    0.0800
52     H52     8.1021   -2.5883   -8.9678 H        1 ZINC000637608314    0.0900
53     H53    10.7556   -2.2750   -8.3593 H        1 ZINC000637608314    0.0800
54     H54     9.6841   -0.8374   -8.4774 H        1 ZINC000637608314    0.0800
55     H55    10.5263   -2.3933   -5.9710 H        1 ZINC000637608314    0.0600
56     H56    10.5169   -0.6218   -6.2249 H        1 ZINC000637608314    0.0800
57     H57     0.4824   -2.4529   -0.8104 H        1 ZINC000637608314    0.4100
@<TRIPOS>BOND
1     1     2     1
2     1     30    1
3     1     31    1
4     1     32    1
5     2     3     1
6     2     4     1
7     2     5     1
8     3     33    1
9     3     34    1
10    3     35    1
11    4     36    1
12    4     37    1
13    4     38    1
14    5     29    1
15    5     6     2
16    6     7     1
17    6     39    1
18    7     8     2
19    7     40    1
20    8     9     1
21    8     27    1
22    9     10    1
23    9     41    1
24    9     42    1
25    10    11    am
26    10    43    1
27    11    12    2
28    11    13    am
29    13    14    1
30    13    20    1
31    14    15    1
32    14    44    1
33    14    45    1
34    15    19    1
35    15    16    2
36    16    17    1
37    16    46    1
38    17    18    2
39    17    47    1
40    18    19    1
41    18    48    1
42    20    21    1
43    20    49    1
44    20    50    1
45    21    22    1
46    21    26    1
47    21    23    1
48    23    24    1
49    23    51    1
50    23    52    1
51    24    25    1
52    24    53    1
53    24    54    1
54    25    26    1
55    25    55    1
56    25    56    1
57    27    28    2
58    27    29    am
59    29    57    1
@<TRIPOS>SUBSTRUCTURE
1   ZINC000637608314 1     RESIDUE    1   A     ZIN   1
@<TRIPOS>MOLECULE
ZINC000114394234
46	48	1	0	0
SMALL
USER_CHARGES
@<TRIPOS>ATOM
1      C1     -0.0036    1.5318    0.0129 C.3      1 ZINC000114394234   -0.1600
2      C2      0.0059    0.0019    0.0021 C.3      1 ZINC000114394234    0.1300
3      H3     -1.0195   -0.3679    0.0082 H        1 ZINC000114394234    0.1200
4      N4      0.6893   -0.4737   -1.2034 N.am     1 ZINC000114394234   -0.7100
5      C5      0.0079   -0.5984   -2.3595 C.2      1 ZINC000114394234    0.5200
6      O6     -1.1711   -0.3170   -2.4019 O.2      1 ZINC000114394234   -0.5100
7      C7      0.7108   -1.0876   -3.5994 C.3      1 ZINC000114394234    0.0400
8      O8     -0.2164   -1.1338   -4.6858 O.3      1 ZINC000114394234   -0.2900
9      C9      0.2602   -1.5568   -5.8862 C.ar     1 ZINC000114394234    0.1300
10     C10     1.5915   -1.9255   -6.0143 C.ar     1 ZINC000114394234   -0.2100
11     C11     2.0734   -2.3556   -7.2355 C.ar     1 ZINC000114394234   -0.0800
12     C12     1.2303   -2.4184   -8.3295 C.ar     1 ZINC000114394234   -0.1600
13     C13    -0.0968   -2.0510   -8.2045 C.ar     1 ZINC000114394234   -0.0800
14     C14    -0.5851   -1.6261   -6.9840 C.ar     1 ZINC000114394234   -0.1500
15     C15     0.7298   -0.5046    1.2229 C.2      1 ZINC000114394234    0.5100
16     O16     1.7193   -1.1950    1.0983 O.2      1 ZINC000114394234   -0.5100
17     N17     0.2778   -0.1906    2.4531 N.am     1 ZINC000114394234   -0.6700
18     C18     0.8914   -0.7388    3.5850 C.ar     1 ZINC000114394234    0.1300
19     C19     0.1287   -1.0649    4.6995 C.ar     1 ZINC000114394234   -0.1200
20     C20     0.7313   -1.6066    5.8193 C.ar     1 ZINC000114394234   -0.1000
21     C21     2.0940   -1.8261    5.8368 C.ar     1 ZINC000114394234   -0.0900
22     C22     2.8670   -1.5014    4.7233 C.ar     1 ZINC000114394234    0.0000
23     C23     4.3323   -1.7363    4.7407 C.2      1 ZINC000114394234    0.2700
24     N24     5.1635   -1.4668    3.7580 N.2      1 ZINC000114394234   -0.3000
25     N25     6.4432   -1.8438    4.1966 N.pl3    1 ZINC000114394234   -0.4800
26     C26     6.2934   -2.3264    5.4433 C.2      1 ZINC000114394234    0.2700
27     N27     5.0283   -2.2528    5.7624 N.2      1 ZINC000114394234   -0.5300
28     C28     2.2602   -0.9621    3.5926 C.ar     1 ZINC000114394234   -0.0800
29     H29     1.0217    1.9016    0.0068 H        1 ZINC000114394234    0.0700
30     H30    -0.5273    1.8982   -0.8701 H        1 ZINC000114394234    0.0800
31     H31    -0.5121    1.8856    0.9098 H        1 ZINC000114394234    0.0800
32     H32     1.6322   -0.6988   -1.1694 H        1 ZINC000114394234    0.4100
33     H33     1.5266   -0.4083   -3.8466 H        1 ZINC000114394234    0.1000
34     H34     1.1108   -2.0857   -3.4205 H        1 ZINC000114394234    0.1000
35     H35     2.2507   -1.8759   -5.1602 H        1 ZINC000114394234    0.1300
36     H36     3.1097   -2.6427   -7.3357 H        1 ZINC000114394234    0.1300
37     H37     1.6090   -2.7546   -9.2834 H        1 ZINC000114394234    0.1300
38     H38    -0.7533   -2.1006   -9.0606 H        1 ZINC000114394234    0.1300
39     H39    -1.6218   -1.3393   -6.8869 H        1 ZINC000114394234    0.1300
40     H40    -0.4728    0.4155    2.5539 H        1 ZINC000114394234    0.4200
41     H41    -0.9377   -0.8945    4.6910 H        1 ZINC000114394234    0.1300
42     H42     0.1342   -1.8585    6.6833 H        1 ZINC000114394234    0.1400
43     H43     2.5615   -2.2491    6.7137 H        1 ZINC000114394234    0.1400
44     H44     7.2722   -1.7708    3.6983 H        1 ZINC000114394234    0.4400
45     H45     7.0839   -2.7053    6.0742 H        1 ZINC000114394234    0.2300
46     H46     2.8549   -0.7090    2.7274 H        1 ZINC000114394234    0.1500
@<TRIPOS>BOND
1     1     2     1
2     1     29    1
3     1     30    1
4     1     31    1
5     2     3     1
6     2     4     1
7     2     15    1
8     4     5     am
9     4     32    1
10    5     6     2
11    5     7     1
12    7     8     1
13    7     33    1
14    7     34    1
15    8     9     1
16    9     14    ar
17    9     10    ar
18    10    11    ar
19    10    35    1
20    11    12    ar
21    11    36    1
22    12    13    ar
23    12    37    1
24    13    14    ar
25    13    38    1
26    14    39    1
27    15    16    2
28    15    17    am
29    17    18    1
30    17    40    1
31    18    28    ar
32    18    19    ar
33    19    20    ar
34    19    41    1
35    20    21    ar
36    20    42    1
37    21    22    ar
38    21    43    1
39    22    23    1
40    22    28    ar
41    23    27    1
42    23    24    2
43    24    25    1
44    25    26    1
45    25    44    1
46    26    27    2
47    26    45    1
48    28    46    1
@<TRIPOS>SUBSTRUCTURE
1   ZINC000114394234 1     RESIDUE    1   A     ZIN   1
@<TRIPOS>MOLECULE
ZINC000186316242
52	55	1	0	0
SMALL
USER_CHARGES
@<TRIPOS>ATOM
1      C1      0.3426    1.0421    0.0414 C.3      1 ZINC000186316242   -0.1500
2      C2      0.1107   -0.4684   -0.0335 C.3      1 ZINC000186316242    0.1000
3      N3     -1.3281   -0.7433   -0.0115 N.am     1 ZINC000186316242   -0.5900
4      C4     -2.0508   -0.6427   -1.1446 C.2      1 ZINC000186316242    0.5900
5      O5     -3.2601   -0.7671   -1.1077 O.2      1 ZINC000186316242   -0.5000
6      C6     -1.3759   -0.3821   -2.4282 C.2      1 ZINC000186316242    0.0100
7      C7     -2.0364   -0.3970   -3.6204 C.2      1 ZINC000186316242   -0.2100
8      S8     -0.9270   -0.0525   -4.8755 S.3      1 ZINC000186316242    0.2000
9      C9      0.3799    0.0936   -3.7063 C.2      1 ZINC000186316242    0.0700
10     C10     1.7877    0.4067   -4.0349 C.ar     1 ZINC000186316242    0.1900
11     C11     2.1580    0.6163   -5.3629 C.ar     1 ZINC000186316242   -0.1500
12     C12     3.4792    0.9089   -5.6544 C.ar     1 ZINC000186316242   -0.0700
13     C13     4.3877    0.9826   -4.6083 C.ar     1 ZINC000186316242   -0.1600
14     C14     3.9519    0.7634   -3.3137 C.ar     1 ZINC000186316242    0.1100
15     N15     2.6882    0.4915   -3.0623 N.ar     1 ZINC000186316242   -0.4500
16     N16    -0.0822   -0.1101   -2.5109 N.2      1 ZINC000186316242   -0.3900
17     C17    -1.9814   -1.1274    1.2423 C.3      1 ZINC000186316242    0.1400
18     H18    -1.2513   -1.1718    2.0504 H        1 ZINC000186316242    0.1000
19     C19    -2.6885   -2.4928    1.0825 C.3      1 ZINC000186316242   -0.1300
20     C20    -4.0013   -2.2988    1.8822 C.3      1 ZINC000186316242    0.0400
21     N21    -4.3728   -0.8909    1.5893 N.3      1 ZINC000186316242   -0.4900
22     C22    -5.2975   -0.3684    2.6041 C.3      1 ZINC000186316242    0.0800
23     C23    -6.6369   -1.0436    2.4584 C.ar     1 ZINC000186316242   -0.0700
24     C24    -7.5985   -0.4995    1.6277 C.ar     1 ZINC000186316242   -0.1000
25     C25    -8.8271   -1.1189    1.4941 C.ar     1 ZINC000186316242   -0.1200
26     C26    -9.0939   -2.2826    2.1908 C.ar     1 ZINC000186316242   -0.1200
27     C27    -8.1319   -2.8272    3.0208 C.ar     1 ZINC000186316242   -0.1200
28     C28    -6.9018   -2.2102    3.1512 C.ar     1 ZINC000186316242   -0.1100
29     C29    -3.1021   -0.1296    1.5886 C.3      1 ZINC000186316242    0.0400
30     H30     1.4131    1.2466    0.0250 H        1 ZINC000186316242    0.0700
31     H31    -0.1328    1.5254   -0.8121 H        1 ZINC000186316242    0.0500
32     H32    -0.0874    1.4303    0.9647 H        1 ZINC000186316242    0.0400
33     H33     0.5406   -0.8566   -0.9568 H        1 ZINC000186316242    0.1200
34     H34     0.5860   -0.9518    0.8200 H        1 ZINC000186316242    0.0700
35     H35    -3.0901   -0.5944   -3.7513 H        1 ZINC000186316242    0.1900
36     H36     1.4244    0.5508   -6.1528 H        1 ZINC000186316242    0.1400
37     H37     3.7958    1.0758   -6.6733 H        1 ZINC000186316242    0.1400
38     H38     5.4257    1.2086   -4.8030 H        1 ZINC000186316242    0.1400
39     H39     4.6570    0.8197   -2.4976 H        1 ZINC000186316242    0.1600
40     H40    -2.9025   -2.6959    0.0331 H        1 ZINC000186316242    0.0900
41     H41    -2.0871   -3.2918    1.5162 H        1 ZINC000186316242    0.0700
42     H42    -4.7727   -2.9821    1.5270 H        1 ZINC000186316242    0.0800
43     H43    -3.8257   -2.4364    2.9491 H        1 ZINC000186316242    0.0400
44     H44    -4.8965   -0.5673    3.5979 H        1 ZINC000186316242    0.0400
45     H45    -5.4160    0.7067    2.4687 H        1 ZINC000186316242    0.0800
46     H46    -7.3901    0.4097    1.0834 H        1 ZINC000186316242    0.1200
47     H47    -9.5786   -0.6934    0.8456 H        1 ZINC000186316242    0.1200
48     H48   -10.0540   -2.7662    2.0870 H        1 ZINC000186316242    0.1200
49     H49    -8.3404   -3.7363    3.5654 H        1 ZINC000186316242    0.1200
50     H50    -6.1502   -2.6357    3.7996 H        1 ZINC000186316242    0.1200
51     H51    -2.9269    0.3014    2.5743 H        1 ZINC000186316242    0.0500
52     H52    -3.1421    0.6590    0.8373 H        1 ZINC000186316242    0.0800
@<TRIPOS>BOND
1     1     2     1
2     1     30    1
3     1     31    1
4     1     32    1
5     2     3     1
6     2     33    1
7     2     34    1
8     3     4     am
9     3     17    1
10    4     5     2
11    4     6     1
12    6     16    1
13    6     7     2
14    7     8     1
15    7     35    1
16    8     9     1
17    9     10    1
18    9     16    2
19    10    15    ar
20    10    11    ar
21    11    12    ar
22    11    36    1
23    12    13    ar
24    12    37    1
25    13    14    ar
26    13    38    1
27    14    15    ar
28    14    39    1
29    17    18    1
30    17    29    1
31    17    19    1
32    19    20    1
33    19    40    1
34    19    41    1
35    20    21    1
36    20    42    1
37    20    43    1
38    21    22    1
39    21    29    1
40    22    23    1
41    22    44    1
42    22    45    1
43    23    28    ar
44    23    24    ar
45    24    25    ar
46    24    46    1
47    25    26    ar
48    25    47    1
49    26    27    ar
50    26    48    1
51    27    28    ar
52    27    49    1
53    28    50    1
54    29    51    1
55    29    52    1
@<TRIPOS>SUBSTRUCTURE
1   ZINC000186316242 1     RESIDUE    1   A     ZIN   1
@<TRIPOS>MOLECULE
ZINC000195331548
56	58	1	0	0
SMALL
USER_CHARGES
@<TRIPOS>ATOM
1      C1      9.1008   -7.2886    4.0377 C.3      1 ZINC000195331548   -0.0800
2      C2      9.1606   -6.6527    2.6728 C.2      1 ZINC000195331548    0.0700
3      C3     10.1485   -5.8338    2.2993 C.2      1 ZINC000195331548   -0.2600
4      S4      9.8349   -5.3267    0.6413 S.3      1 ZINC000195331548    0.1100
5      C5      8.4022   -6.2595    0.6180 C.2      1 ZINC000195331548    0.0600
6      C6      7.4643   -6.3707   -0.5564 C.3      1 ZINC000195331548   -0.0100
7      H7      6.6377   -7.0338   -0.3011 H        1 ZINC000195331548    0.1100
8      C8      8.2198   -6.9362   -1.7622 C.3      1 ZINC000195331548   -0.1200
9      C9      7.2759   -6.9896   -2.9667 C.3      1 ZINC000195331548   -0.1100
10     C10     6.7351   -5.5858   -3.2474 C.3      1 ZINC000195331548    0.0500
11     N11     6.0204   -5.0896   -2.0644 N.3      1 ZINC000195331548   -0.5200
12     C12     5.3695   -3.8026   -2.3440 C.3      1 ZINC000195331548    0.0400
13     C13     4.4409   -3.4526   -1.2100 C.2      1 ZINC000195331548    0.5100
14     O14     4.2449   -4.2506   -0.3186 O.2      1 ZINC000195331548   -0.4400
15     N15     3.8282   -2.2523   -1.1867 N.am     1 ZINC000195331548   -0.7000
16     C16     2.9977   -1.9392   -0.1725 C.2      1 ZINC000195331548    0.6900
17     O17     2.8012   -2.7392    0.7212 O.2      1 ZINC000195331548   -0.5300
18     N18     2.3850   -0.7390   -0.1492 N.am     1 ZINC000195331548   -0.7300
19     C19     1.4822   -0.3987    0.9533 C.3      1 ZINC000195331548    0.1700
20     H20     1.8541   -0.8414    1.8773 H        1 ZINC000195331548    0.0900
21     C21     0.0839   -0.9426    0.6538 C.3      1 ZINC000195331548   -0.1300
22     C22    -0.4381   -0.3212   -0.6432 C.3      1 ZINC000195331548   -0.1200
23     C23    -0.5046    1.1996   -0.4894 C.3      1 ZINC000195331548   -0.1200
24     C24     0.8937    1.7436   -0.1899 C.3      1 ZINC000195331548   -0.1100
25     C25     1.4157    1.1221    1.1071 C.3      1 ZINC000195331548   -0.1000
26     H26     0.7440    1.3753    1.9273 H        1 ZINC000195331548    0.0900
27     C27     2.8141    1.6660    1.4065 C.3      1 ZINC000195331548   -0.1500
28     C28     6.9180   -4.9848   -0.9070 C.3      1 ZINC000195331548    0.0600
29     N29     8.2431   -6.8588    1.7495 N.2      1 ZINC000195331548   -0.4700
30     H30     9.6208   -8.2463    4.0155 H        1 ZINC000195331548    0.0800
31     H31     9.5786   -6.6326    4.7654 H        1 ZINC000195331548    0.0800
32     H32     8.0598   -7.4468    4.3196 H        1 ZINC000195331548    0.0800
33     H33    10.9921   -5.5382    2.9054 H        1 ZINC000195331548    0.1800
34     H34     9.0696   -6.2940   -1.9935 H        1 ZINC000195331548    0.0600
35     H35     8.5745   -7.9407   -1.5314 H        1 ZINC000195331548    0.0700
36     H36     7.8196   -7.3514   -3.8393 H        1 ZINC000195331548    0.0800
37     H37     6.4463   -7.6625   -2.7494 H        1 ZINC000195331548    0.0800
38     H38     6.0515   -5.6228   -4.0956 H        1 ZINC000195331548    0.0800
39     H39     7.5640   -4.9167   -3.4781 H        1 ZINC000195331548    0.0400
40     H40     4.7998   -3.8773   -3.2703 H        1 ZINC000195331548    0.1200
41     H41     6.1279   -3.0263   -2.4454 H        1 ZINC000195331548    0.0700
42     H42     3.9850   -1.6139   -1.8999 H        1 ZINC000195331548    0.4100
43     H43     2.5418   -0.1005   -0.8624 H        1 ZINC000195331548    0.4000
44     H44    -0.5878   -0.6894    1.4741 H        1 ZINC000195331548    0.0700
45     H45     0.1312   -2.0261    0.5443 H        1 ZINC000195331548    0.0700
46     H46    -1.4344   -0.7087   -0.8565 H        1 ZINC000195331548    0.0600
47     H47     0.2335   -0.5744   -1.4634 H        1 ZINC000195331548    0.0600
48     H48    -0.8765    1.6423   -1.4134 H        1 ZINC000195331548    0.0600
49     H49    -1.1763    1.4528    0.3309 H        1 ZINC000195331548    0.0600
50     H50     1.5654    1.4903   -1.0102 H        1 ZINC000195331548    0.0600
51     H51     0.8464    2.8270   -0.0803 H        1 ZINC000195331548    0.0700
52     H52     3.4858    1.4128    0.5863 H        1 ZINC000195331548    0.0500
53     H53     2.7667    2.7495    1.5161 H        1 ZINC000195331548    0.0600
54     H54     3.1860    1.2233    2.3305 H        1 ZINC000195331548    0.0600
55     H55     7.7461   -4.3185   -1.1487 H        1 ZINC000195331548    0.0400
56     H56     6.3673   -4.5854   -0.0553 H        1 ZINC000195331548    0.0900
@<TRIPOS>BOND
1     1     2     1
2     1     30    1
3     1     31    1
4     1     32    1
5     2     29    1
6     2     3     2
7     3     4     1
8     3     33    1
9     4     5     1
10    5     6     1
11    5     29    2
12    6     7     1
13    6     28    1
14    6     8     1
15    8     9     1
16    8     34    1
17    8     35    1
18    9     10    1
19    9     36    1
20    9     37    1
21    10    11    1
22    10    38    1
23    10    39    1
24    11    12    1
25    11    28    1
26    12    13    1
27    12    40    1
28    12    41    1
29    13    14    2
30    13    15    am
31    15    16    am
32    15    42    1
33    16    17    2
34    16    18    am
35    18    19    1
36    18    43    1
37    19    20    1
38    19    25    1
39    19    21    1
40    21    22    1
41    21    44    1
42    21    45    1
43    22    23    1
44    22    46    1
45    22    47    1
46    23    24    1
47    23    48    1
48    23    49    1
49    24    25    1
50    24    50    1
51    24    51    1
52    25    26    1
53    25    27    1
54    27    52    1
55    27    53    1
56    27    54    1
57    28    55    1
58    28    56    1
@<TRIPOS>SUBSTRUCTURE
1   ZINC000195331548 1     RESIDUE    1   A     ZIN   1
@<TRIPOS>MOLECULE
ZINC000787750060
45	47	1	0	0
SMALL
USER_CHARGES
@<TRIPOS>ATOM
1      C1     -0.0184    1.5028    0.0103 C.3      1 ZINC000787750060   -0.1200
2      C2      0.0021   -0.0041    0.0020 C.ar     1 ZINC000787750060   -0.0400
3      C3      0.0057   -0.6859   -1.2036 C.ar     1 ZINC000787750060   -0.1300
4      C4      0.0243   -2.0639   -1.2231 C.ar     1 ZINC000787750060   -0.0700
5      C5      0.0401   -2.7772   -0.0224 C.ar     1 ZINC000787750060   -0.1700
6      C6      0.0606   -4.2524   -0.0359 C.2      1 ZINC000787750060    0.5600
7      O7      0.0743   -4.8699    1.0114 O.2      1 ZINC000787750060   -0.5200
8      N8      0.0641   -4.9155   -1.2093 N.am     1 ZINC000787750060   -0.7300
9      C9      0.0844   -6.3803   -1.2227 C.3      1 ZINC000787750060    0.2100
10     C10     0.0843   -6.8696   -2.6481 C.2      1 ZINC000787750060   -0.2800
11     C11     1.1635   -7.1142   -3.3918 C.2      1 ZINC000787750060    0.0900
12     N12     0.9029   -7.5371   -4.6161 N.2      1 ZINC000787750060   -0.5200
13     C13    -0.3468   -7.6606   -4.9399 C.2      1 ZINC000787750060    0.2300
14     N14    -0.8085   -8.0897   -6.1744 N.3      1 ZINC000787750060   -0.4500
15     C15    -1.6898   -9.2575   -6.0304 C.3      1 ZINC000787750060    0.0200
16     C16    -2.2231   -9.6605   -7.4077 C.3      1 ZINC000787750060    0.0600
17     O17    -1.1219   -9.9179   -8.2832 O.3      1 ZINC000787750060   -0.3800
18     C18    -0.2434   -8.8014   -8.4469 C.3      1 ZINC000787750060    0.0600
19     C19     0.3100   -8.3897   -7.0800 C.3      1 ZINC000787750060    0.0300
20     S20    -1.3417   -7.2253   -3.6194 S.3      1 ZINC000787750060    0.1700
21     C21     0.0368   -2.0834    1.1957 C.ar     1 ZINC000787750060    0.1700
22     O22     0.0520   -2.7654    2.3683 O.3      1 ZINC000787750060   -0.4700
23     C23     0.0228   -0.6969    1.1965 C.ar     1 ZINC000787750060   -0.1200
24     C24     0.0192    0.0549    2.5026 C.3      1 ZINC000787750060   -0.1200
25     H25     1.0042    1.8801    0.0026 H        1 ZINC000787750060    0.0800
26     H26    -0.5455    1.8639   -0.8728 H        1 ZINC000787750060    0.0700
27     H27    -0.5286    1.8543    0.9071 H        1 ZINC000787750060    0.0800
28     H28    -0.0065   -0.1353   -2.1326 H        1 ZINC000787750060    0.1300
29     H29     0.0264   -2.5914   -2.1655 H        1 ZINC000787750060    0.1300
30     H30     0.0532   -4.4229   -2.0448 H        1 ZINC000787750060    0.4000
31     H31     0.9819   -6.7359   -0.7166 H        1 ZINC000787750060    0.0900
32     H32    -0.7978   -6.7607   -0.7080 H        1 ZINC000787750060    0.0800
33     H33     2.1695   -6.9777   -3.0233 H        1 ZINC000787750060    0.1800
34     H34    -1.1278  -10.0868   -5.6008 H        1 ZINC000787750060    0.0600
35     H35    -2.5245   -9.0052   -5.3765 H        1 ZINC000787750060    0.1000
36     H36    -2.8313  -10.5602   -7.3136 H        1 ZINC000787750060    0.1100
37     H37    -2.8298   -8.8513   -7.8142 H        1 ZINC000787750060    0.0700
38     H38     0.5804   -9.0797   -9.1042 H        1 ZINC000787750060    0.1100
39     H39    -0.7924   -7.9671   -8.8835 H        1 ZINC000787750060    0.0600
40     H40     0.9351   -7.5038   -7.1923 H        1 ZINC000787750060    0.1000
41     H41     0.9040   -9.2051   -6.6672 H        1 ZINC000787750060    0.0700
42     H42     0.9398   -2.9511    2.7038 H        1 ZINC000787750060    0.4000
43     H43     1.0460    0.2465    2.8143 H        1 ZINC000787750060    0.0700
44     H44    -0.5046    1.0022    2.3751 H        1 ZINC000787750060    0.0700
45     H45    -0.4863   -0.5403    3.2630 H        1 ZINC000787750060    0.0800
@<TRIPOS>BOND
1     1     2     1
2     1     25    1
3     1     26    1
4     1     27    1
5     2     23    ar
6     2     3     ar
7     3     4     ar
8     3     28    1
9     4     5     ar
10    4     29    1
11    5     6     1
12    5     21    ar
13    6     7     2
14    6     8     am
15    8     9     1
16    8     30    1
17    9     10    1
18    9     31    1
19    9     32    1
20    10    20    1
21    10    11    2
22    11    12    1
23    11    33    1
24    12    13    2
25    13    14    1
26    13    20    1
27    14    19    1
28    14    15    1
29    15    16    1
30    15    34    1
31    15    35    1
32    16    17    1
33    16    36    1
34    16    37    1
35    17    18    1
36    18    19    1
37    18    38    1
38    18    39    1
39    19    40    1
40    19    41    1
41    21    22    1
42    21    23    ar
43    22    42    1
44    23    24    1
45    24    43    1
46    24    44    1
47    24    45    1
@<TRIPOS>SUBSTRUCTURE
1   ZINC000787750060 1     RESIDUE    1   A     ZIN   1
@<TRIPOS>MOLECULE
ZINC000508765459
60	62	1	0	0
SMALL
USER_CHARGES
@<TRIPOS>ATOM
1      C1     -0.0173    1.4248    0.0099 C.3      1 ZINC000508765459    0.0300
2      O2      0.0021   -0.0041    0.0020 O.3      1 ZINC000508765459   -0.3900
3      C3      0.6734   -0.5824    1.1231 C.3      1 ZINC000508765459    0.0500
4      C4      0.6327   -2.1077    1.0107 C.3      1 ZINC000508765459    0.1100
5      N5      1.4013   -2.5316   -0.1622 N.am     1 ZINC000508765459   -0.5900
6      C6      0.6952   -2.6401   -1.4315 C.3      1 ZINC000508765459    0.1000
7      C7      1.6726   -2.5529   -2.6053 C.3      1 ZINC000508765459    0.1200
8      N8      2.8123   -3.4414   -2.3214 N.am     1 ZINC000508765459   -0.6400
9      C9      3.1037   -4.4856   -3.1220 C.2      1 ZINC000508765459    0.7100
10     O10     2.4197   -4.7099   -4.1019 O.2      1 ZINC000508765459   -0.5800
11     N11     4.1534   -5.2813   -2.8364 N.am     1 ZINC000508765459   -0.7400
12     C12     4.4702   -6.4165   -3.7067 C.3      1 ZINC000508765459    0.1400
13     C13     5.6977   -7.1497   -3.1620 C.3      1 ZINC000508765459   -0.1400
14     C14     6.0285   -8.3352   -4.0708 C.3      1 ZINC000508765459    0.0600
15     N15     7.2070   -9.0391   -3.5479 N.3      1 ZINC000508765459   -0.5400
16     C16     8.2698   -8.0906   -3.1866 C.3      1 ZINC000508765459    0.0500
17     C17     9.4455   -8.8551   -2.5737 C.3      1 ZINC000508765459    0.0700
18     N18     9.9363   -9.8491   -3.5385 N.3      1 ZINC000508765459   -0.4600
19     C19    11.0467  -10.5124   -3.0457 C.ar     1 ZINC000508765459    0.4900
20     N20    11.5047  -10.2011   -1.8421 N.ar     1 ZINC000508765459   -0.5500
21     C21    12.5634  -10.8161   -1.3415 C.ar     1 ZINC000508765459    0.1700
22     C22    13.1938  -11.7959   -2.0923 C.ar     1 ZINC000508765459   -0.2600
23     C23    12.6885  -12.0968   -3.3474 C.ar     1 ZINC000508765459    0.1700
24     N24    11.6231  -11.4474   -3.7867 N.ar     1 ZINC000508765459   -0.5300
25     C25     8.8736  -10.7976   -3.8998 C.3      1 ZINC000508765459    0.0700
26     C26     7.6979  -10.0331   -4.5126 C.3      1 ZINC000508765459    0.0600
27     C27     3.6196   -3.1425   -1.1293 C.3      1 ZINC000508765459    0.1000
28     C28     2.6998   -2.7860    0.0061 C.2      1 ZINC000508765459    0.5100
29     O29     3.1580   -2.7357    1.1279 O.2      1 ZINC000508765459   -0.5400
30     H30     1.0053    1.8021    0.0021 H        1 ZINC000508765459    0.0400
31     H31    -0.5445    1.7859   -0.8732 H        1 ZINC000508765459    0.0900
32     H32    -0.5275    1.7763    0.9067 H        1 ZINC000508765459    0.0400
33     H33     1.7103   -0.2468    1.1385 H        1 ZINC000508765459    0.0500
34     H34     0.1775   -0.2725    2.0430 H        1 ZINC000508765459    0.0600
35     H35     1.0656   -2.5499    1.9080 H        1 ZINC000508765459    0.1100
36     H36    -0.4012   -2.4369    0.9060 H        1 ZINC000508765459    0.0900
37     H37     0.1720   -3.5955   -1.4705 H        1 ZINC000508765459    0.0700
38     H38    -0.0309   -1.8308   -1.5084 H        1 ZINC000508765459    0.1000
39     H39     1.1763   -2.8726   -3.5216 H        1 ZINC000508765459    0.1200
40     H40     2.0244   -1.5272   -2.7155 H        1 ZINC000508765459    0.0800
41     H41     4.6991   -5.1024   -2.0547 H        1 ZINC000508765459    0.4000
42     H42     3.6217   -7.1001   -3.7355 H        1 ZINC000508765459    0.0700
43     H43     4.6800   -6.0550   -4.7134 H        1 ZINC000508765459    0.0700
44     H44     6.5461   -6.4660   -3.1332 H        1 ZINC000508765459    0.0700
45     H45     5.4879   -7.5111   -2.1553 H        1 ZINC000508765459    0.0800
46     H46     5.1801   -9.0188   -4.0997 H        1 ZINC000508765459    0.0800
47     H47     6.2383   -7.9737   -5.0776 H        1 ZINC000508765459    0.0400
48     H48     8.6050   -7.5627   -4.0794 H        1 ZINC000508765459    0.0500
49     H49     7.8855   -7.3727   -2.4620 H        1 ZINC000508765459    0.0900
50     H50    10.2467   -8.1569   -2.3316 H        1 ZINC000508765459    0.0900
51     H51     9.1168   -9.3610   -1.6659 H        1 ZINC000508765459    0.0600
52     H52    12.9322  -10.5578   -0.3599 H        1 ZINC000508765459    0.1700
53     H53    14.0603  -12.3135   -1.7078 H        1 ZINC000508765459    0.1500
54     H54    13.1567  -12.8548   -3.9578 H        1 ZINC000508765459    0.1700
55     H55     9.2578  -11.5156   -4.6244 H        1 ZINC000508765459    0.1000
56     H56     8.5384  -11.3255   -3.0070 H        1 ZINC000508765459    0.0500
57     H57     6.8967  -10.7314   -4.7547 H        1 ZINC000508765459    0.0900
58     H58     8.0266   -9.5273   -5.4205 H        1 ZINC000508765459    0.0500
59     H59     4.2128   -4.0169   -0.8615 H        1 ZINC000508765459    0.1100
60     H60     4.2802   -2.3009   -1.3374 H        1 ZINC000508765459    0.1100
@<TRIPOS>BOND
1     1     2     1
2     1     30    1
3     1     31    1
4     1     32    1
5     2     3     1
6     3     4     1
7     3     33    1
8     3     34    1
9     4     5     1
10    4     35    1
11    4     36    1
12    5     28    am
13    5     6     1
14    6     7     1
15    6     37    1
16    6     38    1
17    7     8     1
18    7     39    1
19    7     40    1
20    8     9     am
21    8     27    1
22    9     10    2
23    9     11    am
24    11    12    1
25    11    41    1
26    12    13    1
27    12    42    1
28    12    43    1
29    13    14    1
30    13    44    1
31    13    45    1
32    14    15    1
33    14    46    1
34    14    47    1
35    15    26    1
36    15    16    1
37    16    17    1
38    16    48    1
39    16    49    1
40    17    18    1
41    17    50    1
42    17    51    1
43    18    19    1
44    18    25    1
45    19    24    ar
46    19    20    ar
47    20    21    ar
48    21    22    ar
49    21    52    1
50    22    23    ar
51    22    53    1
52    23    24    ar
53    23    54    1
54    25    26    1
55    25    55    1
56    25    56    1
57    26    57    1
58    26    58    1
59    27    28    1
60    27    59    1
61    27    60    1
62    28    29    2
@<TRIPOS>SUBSTRUCTURE
1   ZINC000508765459 1     RESIDUE    1   A     ZIN   1
@<TRIPOS>MOLECULE
ZINC000939075213
49	51	1	0	0
SMALL
USER_CHARGES
@<TRIPOS>ATOM
1      C1     -1.9708    1.8383    3.0710 C.3      1 ZINC000939075213   -0.1400
2      C2     -1.6154    0.5199    2.3808 C.3      1 ZINC000939075213   -0.1100
3      H3     -1.2579    0.6963    1.3663 H        1 ZINC000939075213    0.0900
4      C4     -2.8223   -0.4511    2.3833 C.3      1 ZINC000939075213    0.1100
5      N5     -2.2254   -1.7954    2.2841 N.am     1 ZINC000939075213   -0.6200
6      C6     -2.8401   -2.8943    1.8034 C.2      1 ZINC000939075213    0.5600
7      O7     -3.9883   -2.8241    1.4038 O.2      1 ZINC000939075213   -0.5400
8      C8     -2.1512   -4.1299    1.7631 C.2      1 ZINC000939075213   -0.2600
9      C9     -2.7188   -5.2032    1.1590 C.2      1 ZINC000939075213    0.0400
10     C10    -3.9181   -5.0487    0.4208 C.2      1 ZINC000939075213    0.0000
11     C11    -4.9726   -5.9421    0.3774 C.2      1 ZINC000939075213   -0.1500
12     C12    -5.9413   -5.3930   -0.4678 C.2      1 ZINC000939075213   -0.2200
13     C13    -5.4759   -4.2023   -0.9169 C.2      1 ZINC000939075213    0.0200
14     N14    -4.2493   -3.9786   -0.3799 N.pl3    1 ZINC000939075213   -0.5000
15     C15    -0.8481   -1.7386    2.7955 C.3      1 ZINC000939075213    0.0900
16     C16    -0.5717   -0.2768    3.2075 C.3      1 ZINC000939075213    0.1400
17     H17    -0.7400   -0.1388    4.2756 H        1 ZINC000939075213    0.1100
18     N18     0.7926    0.1148    2.8448 N.am     1 ZINC000939075213   -0.7200
19     C19     1.8126   -0.1357    3.6893 C.2      1 ZINC000939075213    0.5300
20     O20     1.6011   -0.6853    4.7496 O.2      1 ZINC000939075213   -0.5300
21     C21     3.2160    0.2672    3.3162 C.3      1 ZINC000939075213   -0.0600
22     C22     3.6239   -0.3875    1.9949 C.3      1 ZINC000939075213   -0.1300
23     C23     3.3230    1.7711    3.2164 C.2      1 ZINC000939075213   -0.1700
24     C24     4.4019    2.2058    3.8086 C.2      1 ZINC000939075213   -0.1400
25     C25     5.1943    1.0644    4.4021 C.3      1 ZINC000939075213   -0.1100
26     C26     4.2051   -0.1236    4.4388 C.3      1 ZINC000939075213   -0.1100
27     H27    -1.0839    2.4695    3.1276 H        1 ZINC000939075213    0.0600
28     H28    -2.7452    2.3503    2.4996 H        1 ZINC000939075213    0.0700
29     H29    -2.3366    1.6346    4.0773 H        1 ZINC000939075213    0.0600
30     H30    -3.3857   -0.3537    3.3113 H        1 ZINC000939075213    0.0700
31     H31    -3.4664   -0.2578    1.5255 H        1 ZINC000939075213    0.0800
32     H32    -1.1735   -4.2180    2.2133 H        1 ZINC000939075213    0.1300
33     H33    -2.2565   -6.1759    1.2406 H        1 ZINC000939075213    0.1500
34     H34    -5.0357   -6.8863    0.8979 H        1 ZINC000939075213    0.1400
35     H35    -6.8924   -5.8390   -0.7185 H        1 ZINC000939075213    0.1400
36     H36    -5.9975   -3.5377   -1.5897 H        1 ZINC000939075213    0.1600
37     H37    -3.6960   -3.1978   -0.5385 H        1 ZINC000939075213    0.4100
38     H38    -0.7468   -2.3936    3.6609 H        1 ZINC000939075213    0.0800
39     H39    -0.1501   -2.0414    2.0150 H        1 ZINC000939075213    0.0700
40     H40     0.9618    0.5543    1.9968 H        1 ZINC000939075213    0.4000
41     H41     2.9340   -0.0801    1.2089 H        1 ZINC000939075213    0.0600
42     H42     4.6352   -0.0771    1.7325 H        1 ZINC000939075213    0.0700
43     H43     3.5928   -1.4718    2.1018 H        1 ZINC000939075213    0.0600
44     H44     2.6017    2.4032    2.7199 H        1 ZINC000939075213    0.1300
45     H45     4.6905    3.2449    3.8664 H        1 ZINC000939075213    0.1300
46     H46     6.0498    0.8267    3.7697 H        1 ZINC000939075213    0.0800
47     H47     5.5243    1.3150    5.4102 H        1 ZINC000939075213    0.0800
48     H48     3.6996   -0.1822    5.4028 H        1 ZINC000939075213    0.0900
49     H49     4.7105   -1.0609    4.2063 H        1 ZINC000939075213    0.0800
@<TRIPOS>BOND
1     1     2     1
2     1     27    1
3     1     28    1
4     1     29    1
5     2     3     1
6     2     16    1
7     2     4     1
8     4     5     1
9     4     30    1
10    4     31    1
11    5     6     am
12    5     15    1
13    6     7     2
14    6     8     1
15    8     9     2
16    8     32    1
17    9     10    1
18    9     33    1
19    10    14    1
20    10    11    2
21    11    12    1
22    11    34    1
23    12    13    2
24    12    35    1
25    13    14    1
26    13    36    1
27    14    37    1
28    15    16    1
29    15    38    1
30    15    39    1
31    16    17    1
32    16    18    1
33    18    19    am
34    18    40    1
35    19    20    2
36    19    21    1
37    21    26    1
38    21    22    1
39    21    23    1
40    22    41    1
41    22    42    1
42    22    43    1
43    23    24    2
44    23    44    1
45    24    25    1
46    24    45    1
47    25    26    1
48    25    46    1
49    25    47    1
50    26    48    1
51    26    49    1
@<TRIPOS>SUBSTRUCTURE
1   ZINC000939075213 1     RESIDUE    1   A     ZIN   1
@<TRIPOS>MOLECULE
ZINC001083519372
49	52	1	0	0
SMALL
USER_CHARGES
@<TRIPOS>ATOM
1      C1      3.4080   -3.6786   -3.7474 C.3      1 ZINC001083519372   -0.1500
2      C2      3.7733   -2.4670   -2.8876 C.3      1 ZINC001083519372   -0.0100
3      C3      4.8042   -1.6103   -3.6254 C.3      1 ZINC001083519372   -0.1500
4      C4      2.5365   -1.6477   -2.6227 C.2      1 ZINC001083519372   -0.0100
5      C5      1.9643   -1.4303   -1.4270 C.2      1 ZINC001083519372   -0.0100
6      C6      2.4441   -1.9632   -0.1015 C.3      1 ZINC001083519372    0.1300
7      N7      1.9302   -3.3255    0.0935 N.3      1 ZINC001083519372   -0.5000
8      C8      2.6253   -4.0005    1.2193 C.3      1 ZINC001083519372    0.0300
9      C9      1.6472   -5.1369    1.6095 C.3      1 ZINC001083519372    0.1500
10     H10     1.7592   -5.9894    0.9395 H        1 ZINC001083519372    0.1200
11     N11     1.8539   -5.5435    3.0017 N.am     1 ZINC001083519372   -0.6900
12     C12     2.7826   -6.4730    3.3015 C.2      1 ZINC001083519372    0.5600
13     O13     3.4490   -6.9742    2.4165 O.2      1 ZINC001083519372   -0.5100
14     C14     2.9908   -6.8824    4.7032 C.2      1 ZINC001083519372    0.1400
15     C15     3.9345   -7.8212    5.0224 C.2      1 ZINC001083519372   -0.1500
16     C16     4.1084   -8.1891    6.3633 C.2      1 ZINC001083519372    0.1800
17     N17     3.3763   -7.6414    7.3034 N.2      1 ZINC001083519372   -0.4400
18     C18     2.4495   -6.7228    7.0121 C.2      1 ZINC001083519372    0.2500
19     C19     1.5583   -6.0030    7.8006 C.2      1 ZINC001083519372   -0.2500
20     C20     0.8229   -5.1823    6.9616 C.2      1 ZINC001083519372    0.1000
21     N21     1.2210   -5.3688    5.7220 N.2      1 ZINC001083519372   -0.3100
22     N22     2.2436   -6.3235    5.7148 N.pl3    1 ZINC001083519372   -0.3100
23     C23     0.2608   -4.4772    1.4283 C.3      1 ZINC001083519372    0.0900
24     H24    -0.4432   -5.1887    0.9966 H        1 ZINC001083519372    0.0800
25     O25    -0.2274   -3.9964    2.6823 O.3      1 ZINC001083519372   -0.5600
26     C26     0.4972   -3.3042    0.4591 C.3      1 ZINC001083519372    0.0100
27     N27     0.8863   -0.6514   -1.6260 N.2      1 ZINC001083519372   -0.4800
28     C28     0.7880   -0.3914   -2.8985 C.2      1 ZINC001083519372    0.1700
29     O29     1.8000   -0.9906   -3.5401 O.3      1 ZINC001083519372   -0.2000
30     H30     2.6735   -4.2889   -3.2219 H        1 ZINC001083519372    0.0600
31     H31     2.9875   -3.3389   -4.6940 H        1 ZINC001083519372    0.0600
32     H32     4.3025   -4.2712   -3.9390 H        1 ZINC001083519372    0.0700
33     H33     4.1937   -2.8066   -1.9411 H        1 ZINC001083519372    0.1000
34     H34     4.3838   -1.2706   -4.5719 H        1 ZINC001083519372    0.0600
35     H35     5.0645   -0.7471   -3.0128 H        1 ZINC001083519372    0.0600
36     H36     5.6988   -2.2029   -3.8170 H        1 ZINC001083519372    0.0700
37     H37     3.5339   -1.9808   -0.0899 H        1 ZINC001083519372    0.0900
38     H38     2.0825   -1.3201    0.7009 H        1 ZINC001083519372    0.0600
39     H39     3.5804   -4.4107    0.8911 H        1 ZINC001083519372    0.1000
40     H40     2.7670   -3.3119    2.0522 H        1 ZINC001083519372    0.0600
41     H41     1.3223   -5.1437    3.7078 H        1 ZINC001083519372    0.4300
42     H42     4.5380   -8.2735    4.2494 H        1 ZINC001083519372    0.1800
43     H43     4.8504   -8.9293    6.6244 H        1 ZINC001083519372    0.1900
44     H44     1.4576   -6.0718    8.8737 H        1 ZINC001083519372    0.1700
45     H45     0.0473   -4.4992    7.2749 H        1 ZINC001083519372    0.2000
46     H46    -1.0948   -3.5721    2.6301 H        1 ZINC001083519372    0.3900
47     H47     0.2532   -2.3620    0.9499 H        1 ZINC001083519372    0.0700
48     H48    -0.1156   -3.4306   -0.4334 H        1 ZINC001083519372    0.0900
49     H49     0.0197    0.2113   -3.3598 H        1 ZINC001083519372    0.2500
@<TRIPOS>BOND
1     1     2     1
2     1     30    1
3     1     31    1
4     1     32    1
5     2     3     1
6     2     4     1
7     2     33    1
8     3     34    1
9     3     35    1
10    3     36    1
11    4     29    1
12    4     5     2
13    5     6     1
14    5     27    1
15    6     7     1
16    6     37    1
17    6     38    1
18    7     26    1
19    7     8     1
20    8     9     1
21    8     39    1
22    8     40    1
23    9     10    1
24    9     11    1
25    9     23    1
26    11    12    am
27    11    41    1
28    12    13    2
29    12    14    1
30    14    22    1
31    14    15    2
32    15    16    1
33    15    42    1
34    16    17    2
35    16    43    1
36    17    18    1
37    18    22    1
38    18    19    2
39    19    20    1
40    19    44    1
41    20    21    2
42    20    45    1
43    21    22    1
44    23    24    1
45    23    25    1
46    23    26    1
47    25    46    1
48    26    47    1
49    26    48    1
50    27    28    2
51    28    29    1
52    28    49    1
@<TRIPOS>SUBSTRUCTURE
1   ZINC001083519372 1     RESIDUE    1   A     ZIN   1
@<TRIPOS>MOLECULE
ZINC000826052721
46	50	1	0	0
SMALL
USER_CHARGES
@<TRIPOS>ATOM
1      C1      0.5146   -3.2429    1.8519 C.3      1 ZINC000826052721   -0.0400
2      N2      0.3820   -2.5229    0.5783 N.4      1 ZINC000826052721   -0.3800
3      H3     -0.4496   -2.8344    0.0993 H        1 ZINC000826052721    0.4300
4      C4      1.5569   -2.7848   -0.2579 C.3      1 ZINC000826052721    0.0500
5      C5      1.5169   -1.9431   -1.5059 C.ar     1 ZINC000826052721   -0.1300
6      C6      2.3062   -2.3166   -2.5830 C.ar     1 ZINC000826052721   -0.1000
7      C7      2.3026   -1.5682   -3.7433 C.ar     1 ZINC000826052721   -0.1000
8      C8      1.5086   -0.4404   -3.8331 C.ar     1 ZINC000826052721   -0.0800
9      C9      0.7207   -0.0677   -2.7619 C.ar     1 ZINC000826052721   -0.0800
10     C10     0.7230   -0.8191   -1.5975 C.ar     1 ZINC000826052721   -0.1200
11     C11    -0.1536   -0.3808   -0.4522 C.3      1 ZINC000826052721    0.1100
12     H12    -1.1893   -0.6439   -0.6673 H        1 ZINC000826052721    0.1100
13     N13    -0.0443    1.0742   -0.2825 N.3      1 ZINC000826052721   -0.6200
14     C14    -1.1080    1.7240   -0.8806 C.ar     1 ZINC000826052721    0.1600
15     C15    -0.9048    2.6345   -1.9233 C.ar     1 ZINC000826052721   -0.0400
16     C16     0.4611    2.9205   -2.4081 C.2      1 ZINC000826052721    0.0700
17     N17     1.6059    2.4922   -1.8708 N.2      1 ZINC000826052721   -0.3800
18     N18     2.5691    2.9572   -2.5907 N.2      1 ZINC000826052721   -0.1600
19     N19     2.0810    3.6644   -3.5486 N.2      1 ZINC000826052721   -0.1700
20     N20     0.7944    3.6630   -3.4666 N.pl3    1 ZINC000826052721   -0.3400
21     C21    -2.0106    3.2694   -2.5068 C.ar     1 ZINC000826052721    0.1800
22     N22    -3.2317    3.0393   -2.0944 N.ar     1 ZINC000826052721   -0.4700
23     C23    -3.4936    2.1833   -1.0976 C.ar     1 ZINC000826052721    0.0900
24     C24    -4.8154    1.9561   -0.6731 C.ar     1 ZINC000826052721    0.1700
25     F25    -5.8398    2.6022   -1.2716 F        1 ZINC000826052721   -0.1100
26     C26    -5.0595    1.0808    0.3438 C.ar     1 ZINC000826052721   -0.1900
27     C27    -4.0167    0.4044    0.9742 C.ar     1 ZINC000826052721    0.1300
28     F28    -4.2899   -0.4563    1.9791 F        1 ZINC000826052721   -0.1300
29     C29    -2.7224    0.6018    0.5881 C.ar     1 ZINC000826052721   -0.1500
30     C30    -2.4376    1.4946   -0.4546 C.ar     1 ZINC000826052721   -0.0600
31     C31     0.2912   -1.0776    0.8344 C.3      1 ZINC000826052721    0.0000
32     H32     1.4114   -2.9028    2.3699 H        1 ZINC000826052721    0.1200
33     H33    -0.3598   -3.0472    2.4727 H        1 ZINC000826052721    0.1300
34     H34     0.5905   -4.3128    1.6582 H        1 ZINC000826052721    0.1200
35     H35     1.5728   -3.8388   -0.5355 H        1 ZINC000826052721    0.1400
36     H36     2.4593   -2.5488    0.3061 H        1 ZINC000826052721    0.1400
37     H37     2.9268   -3.1978   -2.5141 H        1 ZINC000826052721    0.1300
38     H38     2.9190   -1.8636   -4.5794 H        1 ZINC000826052721    0.1300
39     H39     1.5041    0.1477   -4.7390 H        1 ZINC000826052721    0.1300
40     H40     0.0996    0.8130   -2.8321 H        1 ZINC000826052721    0.1400
41     H41     0.8352    1.4150   -0.6407 H        1 ZINC000826052721    0.4100
42     H42    -1.8505    3.9689   -3.3140 H        1 ZINC000826052721    0.1800
43     H43    -6.0761    0.9096    0.6658 H        1 ZINC000826052721    0.1600
44     H44    -1.9216    0.0730    1.0837 H        1 ZINC000826052721    0.1400
45     H45     1.2663   -0.6970    1.1383 H        1 ZINC000826052721    0.1400
46     H46    -0.4388   -0.8918    1.6223 H        1 ZINC000826052721    0.1400
@<TRIPOS>BOND
1     1     2     1
2     1     32    1
3     1     33    1
4     1     34    1
5     2     3     1
6     2     31    1
7     2     4     1
8     4     5     1
9     4     35    1
10    4     36    1
11    5     10    ar
12    5     6     ar
13    6     7     ar
14    6     37    1
15    7     8     ar
16    7     38    1
17    8     9     ar
18    8     39    1
19    9     10    ar
20    9     40    1
21    10    11    1
22    11    12    1
23    11    13    1
24    11    31    1
25    13    14    1
26    13    41    1
27    14    30    ar
28    14    15    ar
29    15    16    1
30    15    21    ar
31    16    20    1
32    16    17    2
33    17    18    1
34    18    19    2
35    19    20    1
36    21    22    ar
37    21    42    1
38    22    23    ar
39    23    30    ar
40    23    24    ar
41    24    25    1
42    24    26    ar
43    26    27    ar
44    26    43    1
45    27    28    1
46    27    29    ar
47    29    30    ar
48    29    44    1
49    31    45    1
50    31    46    1
@<TRIPOS>SUBSTRUCTURE
1   ZINC000826052721 1     RESIDUE    1   A     ZIN   1
@<TRIPOS>MOLECULE
ZINC001078748831
42	45	1	0	0
SMALL
USER_CHARGES
@<TRIPOS>ATOM
1      C1     -0.0178    1.4608    0.0101 C.3      1 ZINC001078748831    0.1000
2      N2      0.0021   -0.0041    0.0020 N.pl3    1 ZINC001078748831   -0.1400
3      N3      0.0074   -0.7251   -1.0618 N.2      1 ZINC001078748831   -0.2900
4      C4      0.0268   -1.9912   -0.7209 C.2      1 ZINC001078748831    0.0400
5      C5      0.0335   -2.0085    0.6882 C.2      1 ZINC001078748831   -0.0500
6      C6      0.0547   -3.1960    1.5680 C.2      1 ZINC001078748831    0.6200
7      O7      0.0686   -4.3109    1.0838 O.2      1 ZINC001078748831   -0.5200
8      N8      0.0586   -3.0426    2.9070 N.am     1 ZINC001078748831   -0.7000
9      C9      0.0797   -4.2197    3.7790 C.3      1 ZINC001078748831    0.1500
10     H10     0.5198   -5.0943    3.3000 H        1 ZINC001078748831    0.1100
11     C11    -1.2686   -4.5042    4.4655 C.3      1 ZINC001078748831   -0.1800
12     C12    -0.7909   -3.5992    5.6157 C.3      1 ZINC001078748831    0.0800
13     H13    -1.0513   -2.5491    5.4832 H        1 ZINC001078748831    0.1000
14     N14    -1.1358   -4.1093    6.9494 N.3      1 ZINC001078748831   -0.6700
15     C15    -2.2574   -3.3568    7.5271 C.3      1 ZINC001078748831    0.1400
16     C16    -2.5819   -3.9074    8.8919 C.2      1 ZINC001078748831    0.0600
17     N17    -3.3598   -4.9341    9.0957 N.2      1 ZINC001078748831   -0.5700
18     S18    -3.4436   -5.1911   10.6321 S.3      1 ZINC001078748831    0.6800
19     N19    -2.5147   -4.0354   11.1169 N.2      1 ZINC001078748831   -0.5700
20     C20    -2.0849   -3.3863   10.0705 C.2      1 ZINC001078748831    0.0500
21     C21     0.6365   -3.9392    5.1752 C.3      1 ZINC001078748831   -0.1000
22     C22     1.4666   -4.9842    5.9215 C.3      1 ZINC001078748831   -0.1000
23     C23     2.7069   -4.1812    5.4893 C.3      1 ZINC001078748831   -0.1400
24     C24     1.7853   -2.9524    5.3863 C.3      1 ZINC001078748831   -0.1200
25     N25     0.0221   -0.7370    1.0584 N.2      1 ZINC001078748831   -0.2500
26     H26     1.0048    1.8381    0.0023 H        1 ZINC001078748831    0.1000
27     H27    -0.5450    1.8219   -0.8730 H        1 ZINC001078748831    0.1100
28     H28    -0.5280    1.8123    0.9069 H        1 ZINC001078748831    0.1100
29     H29     0.0353   -2.8443   -1.3831 H        1 ZINC001078748831    0.2100
30     H30     0.0475   -2.1530    3.2933 H        1 ZINC001078748831    0.4100
31     H31    -2.1264   -4.1051    3.9241 H        1 ZINC001078748831    0.0700
32     H32    -1.3985   -5.5467    4.7561 H        1 ZINC001078748831    0.1000
33     H33    -1.3414   -5.0966    6.9169 H        1 ZINC001078748831    0.3500
34     H34    -1.9827   -2.3057    7.6152 H        1 ZINC001078748831    0.1000
35     H35    -3.1298   -3.4513    6.8804 H        1 ZINC001078748831    0.0600
36     H36    -1.4216   -2.5354   10.1203 H        1 ZINC001078748831    0.2000
37     H37     1.3006   -4.9868    6.9988 H        1 ZINC001078748831    0.1000
38     H38     1.4148   -5.9799    5.4812 H        1 ZINC001078748831    0.0700
39     H39     3.4637   -4.0945    6.2690 H        1 ZINC001078748831    0.0700
40     H40     3.1197   -4.4982    4.5316 H        1 ZINC001078748831    0.0800
41     H41     1.9881   -2.3250    4.5183 H        1 ZINC001078748831    0.0700
42     H42     1.7089   -2.3838    6.3131 H        1 ZINC001078748831    0.0900
@<TRIPOS>BOND
1     1     2     1
2     1     26    1
3     1     27    1
4     1     28    1
5     2     25    1
6     2     3     1
7     3     4     2
8     4     5     1
9     4     29    1
10    5     6     1
11    5     25    2
12    6     7     2
13    6     8     am
14    8     9     1
15    8     30    1
16    9     10    1
17    9     21    1
18    9     11    1
19    11    12    1
20    11    31    1
21    11    32    1
22    12    13    1
23    12    14    1
24    12    21    1
25    14    15    1
26    14    33    1
27    15    16    1
28    15    34    1
29    15    35    1
30    16    20    1
31    16    17    2
32    17    18    1
33    18    19    1
34    19    20    2
35    20    36    1
36    21    24    1
37    21    22    1
38    22    23    1
39    22    37    1
40    22    38    1
41    23    24    1
42    23    39    1
43    23    40    1
44    24    41    1
45    24    42    1
@<TRIPOS>SUBSTRUCTURE
1   ZINC001078748831 1     RESIDUE    1   A     ZIN   1
@<TRIPOS>MOLECULE
ZINC000364058410
47	50	1	0	0
SMALL
USER_CHARGES
@<TRIPOS>ATOM
1      C1     -1.2415    1.9125   -5.9532 C.3      1 ZINC000364058410   -0.0700
2      C2     -1.3775    1.0369   -4.7342 C.2      1 ZINC000364058410   -0.2500
3      C3     -0.8556   -0.2022   -4.5819 C.2      1 ZINC000364058410    0.0800
4      N4     -1.2011   -0.6461   -3.3552 N.pl3    1 ZINC000364058410   -0.3600
5      C5     -0.8446   -1.9437   -2.7762 C.3      1 ZINC000364058410    0.1300
6      C6     -0.2506   -2.9344   -3.7939 C.3      1 ZINC000364058410    0.1100
7      N7      1.0636   -2.3791   -3.4164 N.am     1 ZINC000364058410   -0.6500
8      C8      2.2616   -2.2888   -4.0271 C.2      1 ZINC000364058410    0.5600
9      O9      2.4067   -2.7332   -5.1462 O.2      1 ZINC000364058410   -0.5000
10     C10     3.4208   -1.6358   -3.3195 C.3      1 ZINC000364058410    0.1400
11     H11     3.0820   -1.2187   -2.3711 H        1 ZINC000364058410    0.0900
12     C12     4.5163   -2.6751   -3.0612 C.3      1 ZINC000364058410   -0.1200
13     C13     5.7445   -1.9796   -2.4696 C.3      1 ZINC000364058410   -0.1200
14     C14     6.2804   -0.9507   -3.4678 C.3      1 ZINC000364058410   -0.1400
15     C15     5.2049    0.1081   -3.7306 C.3      1 ZINC000364058410    0.1000
16     N16     3.9707   -0.5639   -4.1605 N.am     1 ZINC000364058410   -0.6000
17     C17     3.3581   -0.2071   -5.3068 C.2      1 ZINC000364058410    0.5900
18     O18     2.2863   -0.7016   -5.6033 O.2      1 ZINC000364058410   -0.4900
19     C19     3.9827    0.7764   -6.1963 C.2      1 ZINC000364058410   -0.2600
20     C20     3.3418    1.8259   -6.7921 C.2      1 ZINC000364058410   -0.0600
21     C21     4.1691    2.5929   -7.5777 C.2      1 ZINC000364058410   -0.1400
22     C22     5.4435    2.1874   -7.6250 C.2      1 ZINC000364058410   -0.2400
23     S23     5.6782    0.7991   -6.6614 S.3      1 ZINC000364058410    0.2100
24     C24     0.5390   -1.9623   -2.1014 C.3      1 ZINC000364058410    0.0900
25     N25    -1.9604    0.3533   -2.7331 N.2      1 ZINC000364058410   -0.3000
26     C26    -2.0604    1.3639   -3.5582 C.2      1 ZINC000364058410    0.0500
27     H27    -0.3478    2.5294   -5.8596 H        1 ZINC000364058410    0.0600
28     H28    -1.1600    1.2874   -6.8424 H        1 ZINC000364058410    0.0600
29     H29    -2.1185    2.5542   -6.0393 H        1 ZINC000364058410    0.0600
30     H30    -0.2679   -0.7397   -5.3114 H        1 ZINC000364058410    0.1700
31     H31    -1.6386   -2.3671   -2.1611 H        1 ZINC000364058410    0.1300
32     H32    -0.3816   -3.9804   -3.5167 H        1 ZINC000364058410    0.1100
33     H33    -0.5349   -2.7277   -4.8257 H        1 ZINC000364058410    0.0900
34     H34     4.1491   -3.4240   -2.3596 H        1 ZINC000364058410    0.0800
35     H35     4.7884   -3.1577   -3.9999 H        1 ZINC000364058410    0.0800
36     H36     5.4660   -1.4764   -1.5437 H        1 ZINC000364058410    0.0700
37     H37     6.5165   -2.7205   -2.2620 H        1 ZINC000364058410    0.0800
38     H38     7.1688   -0.4723   -3.0555 H        1 ZINC000364058410    0.0800
39     H39     6.5359   -1.4496   -4.4026 H        1 ZINC000364058410    0.0700
40     H40     5.0134    0.6692   -2.8160 H        1 ZINC000364058410    0.0800
41     H41     5.5437    0.7864   -4.5137 H        1 ZINC000364058410    0.0900
42     H42     2.2900    2.0321   -6.6594 H        1 ZINC000364058410    0.1500
43     H43     3.8162    3.4592   -8.1176 H        1 ZINC000364058410    0.1500
44     H44     6.2206    2.6762   -8.1939 H        1 ZINC000364058410    0.1700
45     H45     0.8851   -0.9793   -1.7818 H        1 ZINC000364058410    0.0900
46     H46     0.6400   -2.7227   -1.3270 H        1 ZINC000364058410    0.1100
47     H47    -2.5859    2.2878   -3.3671 H        1 ZINC000364058410    0.1800
@<TRIPOS>BOND
1     1     2     1
2     1     27    1
3     1     28    1
4     1     29    1
5     2     26    1
6     2     3     2
7     3     4     1
8     3     30    1
9     4     5     1
10    4     25    1
11    5     24    1
12    5     6     1
13    5     31    1
14    6     7     1
15    6     32    1
16    6     33    1
17    7     8     am
18    7     24    1
19    8     9     2
20    8     10    1
21    10    11    1
22    10    16    1
23    10    12    1
24    12    13    1
25    12    34    1
26    12    35    1
27    13    14    1
28    13    36    1
29    13    37    1
30    14    15    1
31    14    38    1
32    14    39    1
33    15    16    1
34    15    40    1
35    15    41    1
36    16    17    am
37    17    18    2
38    17    19    1
39    19    23    1
40    19    20    2
41    20    21    1
42    20    42    1
43    21    22    2
44    21    43    1
45    22    23    1
46    22    44    1
47    24    45    1
48    24    46    1
49    25    26    2
50    26    47    1
@<TRIPOS>SUBSTRUCTURE
1   ZINC000364058410 1     RESIDUE    1   A     ZIN   1
@<TRIPOS>MOLECULE
ZINC000481838178
53	57	1	0	0
SMALL
USER_CHARGES
@<TRIPOS>ATOM
1      O1      0.0021   -0.0041    0.0020 O.2      1 ZINC000481838178   -0.5200
2      C2     -0.0144    1.2086    0.0087 C.2      1 ZINC000481838178    0.5500
3      C3      1.2803    1.9798    0.0005 C.3      1 ZINC000481838178   -0.1500
4      S4      2.6718    0.8225   -0.0190 S.3      1 ZINC000481838178    0.1000
5      C5      4.0166    1.9609   -0.0258 C.2      1 ZINC000481838178    0.1600
6      N6      3.9279    3.2719   -0.0121 N.2      1 ZINC000481838178   -0.2800
7      N7      5.1009    3.7963   -0.0225 N.2      1 ZINC000481838178   -0.2500
8      C8      6.0160    2.8517   -0.0434 C.2      1 ZINC000481838178    0.2700
9      C9      7.4738    3.0458   -0.0606 C.2      1 ZINC000481838178    0.0300
10     C10     8.1306    4.2036    0.2323 C.2      1 ZINC000481838178   -0.1300
11     C11     9.5059    3.9365    0.0896 C.2      1 ZINC000481838178   -0.2100
12     C12     9.6222    2.6451   -0.2787 C.2      1 ZINC000481838178   -0.0100
13     O13     8.3936    2.1083   -0.3629 O.3      1 ZINC000481838178   -0.1700
14     N14     5.3486    1.6443   -0.0402 N.pl3    1 ZINC000481838178   -0.4100
15     C15     5.9152    0.3624   -0.0572 C.ar     1 ZINC000481838178    0.1000
16     C16     6.6481   -0.0596   -1.1582 C.ar     1 ZINC000481838178   -0.0800
17     C17     7.2051   -1.3235   -1.1721 C.ar     1 ZINC000481838178   -0.1100
18     C18     7.0335   -2.1681   -0.0908 C.ar     1 ZINC000481838178   -0.1000
19     C19     6.3040   -1.7506    1.0073 C.ar     1 ZINC000481838178   -0.1100
20     C20     5.7494   -0.4858    1.0294 C.ar     1 ZINC000481838178   -0.0900
21     N21    -1.1906    1.8666    0.0178 N.am     1 ZINC000481838178   -0.6200
22     C22    -1.3629    3.3440    0.0202 C.3      1 ZINC000481838178    0.1000
23     C23    -2.7473    3.5350   -0.6106 C.3      1 ZINC000481838178   -0.1100
24     H24    -2.7131    3.3655   -1.6868 H        1 ZINC000481838178    0.0900
25     C25    -3.4566    4.8370   -0.2894 C.3      1 ZINC000481838178   -0.1100
26     C26    -4.8555    4.7577   -0.9231 C.3      1 ZINC000481838178   -0.1200
27     C27    -5.6383    3.5531   -0.4106 C.3      1 ZINC000481838178   -0.1200
28     C28    -4.8515    2.2448   -0.5982 C.3      1 ZINC000481838178   -0.1000
29     C29    -3.5278    2.3977    0.1146 C.3      1 ZINC000481838178   -0.1100
30     H30    -3.6944    2.6858    1.1526 H        1 ZINC000481838178    0.0900
31     C31    -2.5367    1.2416    0.0208 C.3      1 ZINC000481838178    0.1200
32     H32     1.3211    2.6120   -0.8866 H        1 ZINC000481838178    0.1300
33     H33     1.3381    2.6024    0.8933 H        1 ZINC000481838178    0.1300
34     H34     7.6829    5.1440    0.5180 H        1 ZINC000481838178    0.1600
35     H35    10.3148    4.6347    0.2456 H        1 ZINC000481838178    0.1600
36     H36    10.5500    2.1264   -0.4700 H        1 ZINC000481838178    0.2100
37     H37     6.7822    0.5995   -2.0032 H        1 ZINC000481838178    0.1300
38     H38     7.7751   -1.6524   -2.0284 H        1 ZINC000481838178    0.1400
39     H39     7.4697   -3.1560   -0.1040 H        1 ZINC000481838178    0.1300
40     H40     6.1713   -2.4127    1.8502 H        1 ZINC000481838178    0.1400
41     H41     5.1798   -0.1603    1.8873 H        1 ZINC000481838178    0.1300
42     H42    -1.3472    3.7318    1.0388 H        1 ZINC000481838178    0.0800
43     H43    -0.5941    3.8222   -0.5868 H        1 ZINC000481838178    0.0800
44     H44    -3.5441    4.9559    0.7906 H        1 ZINC000481838178    0.0700
45     H45    -2.9038    5.6756   -0.7129 H        1 ZINC000481838178    0.0700
46     H46    -5.4062    5.6676   -0.6843 H        1 ZINC000481838178    0.0600
47     H47    -4.7517    4.6801   -2.0054 H        1 ZINC000481838178    0.0600
48     H48    -5.8508    3.6917    0.6495 H        1 ZINC000481838178    0.0600
49     H49    -6.5802    3.4831   -0.9548 H        1 ZINC000481838178    0.0700
50     H50    -5.4092    1.4113   -0.1711 H        1 ZINC000481838178    0.0700
51     H51    -4.6717    2.0682   -1.6587 H        1 ZINC000481838178    0.0700
52     H52    -2.7039    0.6759   -0.8957 H        1 ZINC000481838178    0.0700
53     H53    -2.6349    0.5902    0.8892 H        1 ZINC000481838178    0.0700
@<TRIPOS>BOND
1     1     2     2
2     2     3     1
3     2     21    am
4     3     4     1
5     3     32    1
6     3     33    1
7     4     5     1
8     5     14    1
9     5     6     2
10    6     7     1
11    7     8     2
12    8     9     1
13    8     14    1
14    9     13    1
15    9     10    2
16    10    11    1
17    10    34    1
18    11    12    2
19    11    35    1
20    12    13    1
21    12    36    1
22    14    15    1
23    15    20    ar
24    15    16    ar
25    16    17    ar
26    16    37    1
27    17    18    ar
28    17    38    1
29    18    19    ar
30    18    39    1
31    19    20    ar
32    19    40    1
33    20    41    1
34    21    31    1
35    21    22    1
36    22    23    1
37    22    42    1
38    22    43    1
39    23    24    1
40    23    29    1
41    23    25    1
42    25    26    1
43    25    44    1
44    25    45    1
45    26    27    1
46    26    46    1
47    26    47    1
48    27    28    1
49    27    48    1
50    27    49    1
51    28    29    1
52    28    50    1
53    28    51    1
54    29    30    1
55    29    31    1
56    31    52    1
57    31    53    1
@<TRIPOS>SUBSTRUCTURE
1   ZINC000481838178 1     RESIDUE    1   A     ZIN   1
@<TRIPOS>MOLECULE
ZINC000523863446
61	63	1	0	0
SMALL
USER_CHARGES
@<TRIPOS>ATOM
1      C1     -0.0187    1.5258    0.0104 C.3      1 ZINC000523863446   -0.1700
2      C2      0.0021   -0.0041    0.0020 C.3      1 ZINC000523863446    0.1500
3      H3     -1.0205   -0.3814    0.0098 H        1 ZINC000523863446    0.1300
4      C4      0.7074   -0.4901   -1.2379 C.2      1 ZINC000523863446    0.5100
5      O5      1.7039   -1.1744   -1.1398 O.2      1 ZINC000523863446   -0.5100
6      N6      0.2309   -0.1642   -2.4557 N.am     1 ZINC000523863446   -0.6000
7      C7     -0.9727    0.6625   -2.5742 C.3      1 ZINC000523863446    0.0700
8      C8      0.9167   -0.6367   -3.6611 C.3      1 ZINC000523863446    0.1000
9      C9      0.3473   -1.9698   -4.0730 C.2      1 ZINC000523863446    0.5000
10     O10    -0.5435   -2.4755   -3.4236 O.2      1 ZINC000523863446   -0.5200
11     N11     0.8281   -2.6001   -5.1629 N.am     1 ZINC000523863446   -0.7200
12     C12     0.2746   -3.8961   -5.5633 C.3      1 ZINC000523863446    0.1900
13     H13     0.0069   -4.4672   -4.6743 H        1 ZINC000523863446    0.1000
14     C14     1.3192   -4.6693   -6.3707 C.3      1 ZINC000523863446   -0.1200
15     C15     2.5147   -4.9991   -5.4747 C.3      1 ZINC000523863446   -0.0900
16     C16     2.0719   -5.9550   -4.3651 C.3      1 ZINC000523863446   -0.1200
17     C17     3.2674   -6.2849   -3.4690 C.3      1 ZINC000523863446   -0.1200
18     C18     4.3642   -6.9472   -4.3052 C.3      1 ZINC000523863446   -0.1200
19     C19     4.8069   -5.9913   -5.4148 C.3      1 ZINC000523863446   -0.1200
20     C20     3.6115   -5.6615   -6.3109 C.3      1 ZINC000523863446   -0.1100
21     C21    -0.9535   -3.6781   -6.4091 C.ar     1 ZINC000523863446   -0.0900
22     C22    -0.9740   -2.6656   -7.3500 C.ar     1 ZINC000523863446   -0.1100
23     C23    -2.1005   -2.4657   -8.1258 C.ar     1 ZINC000523863446   -0.1200
24     C24    -3.2064   -3.2786   -7.9609 C.ar     1 ZINC000523863446   -0.1200
25     C25    -3.1856   -4.2917   -7.0207 C.ar     1 ZINC000523863446   -0.1200
26     C26    -2.0575   -4.4943   -6.2479 C.ar     1 ZINC000523863446   -0.1000
27     N27     0.7106   -0.4894    1.1889 N.pl3    1 ZINC000523863446   -0.3600
28     C28     1.7703    0.1029    1.7784 C.2      1 ZINC000523863446    0.0600
29     C29     2.1287   -0.6556    2.8402 C.2      1 ZINC000523863446   -0.2700
30     C30     1.2584   -1.7488    2.9016 C.2      1 ZINC000523863446    0.0500
31     N31     0.4041   -1.6469    1.9158 N.2      1 ZINC000523863446   -0.2900
32     H32     1.0039    1.9031    0.0027 H        1 ZINC000523863446    0.0700
33     H33    -0.5459    1.8868   -0.8726 H        1 ZINC000523863446    0.1000
34     H34    -0.5289    1.8773    0.9072 H        1 ZINC000523863446    0.0800
35     H35    -0.6894    1.7146   -2.6046 H        1 ZINC000523863446    0.0700
36     H36    -1.5033    0.4025   -3.4902 H        1 ZINC000523863446    0.0800
37     H37    -1.6210    0.4854   -1.7161 H        1 ZINC000523863446    0.0800
38     H38     0.7738    0.0839   -4.4664 H        1 ZINC000523863446    0.1100
39     H39     1.9815   -0.7445   -3.4546 H        1 ZINC000523863446    0.1100
40     H40     1.5406   -2.1957   -5.6822 H        1 ZINC000523863446    0.4000
41     H41     0.8787   -5.5939   -6.7438 H        1 ZINC000523863446    0.0800
42     H42     1.6523   -4.0605   -7.2113 H        1 ZINC000523863446    0.0700
43     H43     2.9004   -4.0813   -5.0310 H        1 ZINC000523863446    0.0700
44     H44     1.2906   -5.4832   -3.7694 H        1 ZINC000523863446    0.0600
45     H45     1.6862   -6.8729   -4.8088 H        1 ZINC000523863446    0.0600
46     H46     3.6531   -5.3670   -3.0253 H        1 ZINC000523863446    0.0600
47     H47     2.9520   -6.9659   -2.6785 H        1 ZINC000523863446    0.0600
48     H48     5.2158   -7.1822   -3.6668 H        1 ZINC000523863446    0.0600
49     H49     3.9785   -7.8651   -4.7489 H        1 ZINC000523863446    0.0600
50     H50     5.1926   -5.0734   -4.9711 H        1 ZINC000523863446    0.0600
51     H51     5.5883   -6.4632   -6.0105 H        1 ZINC000523863446    0.0600
52     H52     3.2258   -6.5793   -6.7545 H        1 ZINC000523863446    0.0600
53     H53     3.9269   -4.9805   -7.1013 H        1 ZINC000523863446    0.0600
54     H54    -0.1100   -2.0306   -7.4788 H        1 ZINC000523863446    0.1200
55     H55    -2.1168   -1.6742   -8.8604 H        1 ZINC000523863446    0.1200
56     H56    -4.0868   -3.1219   -8.5666 H        1 ZINC000523863446    0.1200
57     H57    -4.0497   -4.9265   -6.8917 H        1 ZINC000523863446    0.1200
58     H58    -2.0412   -5.2858   -5.5132 H        1 ZINC000523863446    0.1200
59     H59     2.2470    1.0180    1.4597 H        1 ZINC000523863446    0.1700
60     H60     2.9433   -0.4530    3.5197 H        1 ZINC000523863446    0.1500
61     H61     1.2839   -2.5379    3.6385 H        1 ZINC000523863446    0.1800
@<TRIPOS>BOND
1     1     2     1
2     1     32    1
3     1     33    1
4     1     34    1
5     2     3     1
6     2     4     1
7     2     27    1
8     4     5     2
9     4     6     am
10    6     7     1
11    6     8     1
12    7     35    1
13    7     36    1
14    7     37    1
15    8     9     1
16    8     38    1
17    8     39    1
18    9     10    2
19    9     11    am
20    11    12    1
21    11    40    1
22    12    13    1
23    12    14    1
24    12    21    1
25    14    15    1
26    14    41    1
27    14    42    1
28    15    20    1
29    15    16    1
30    15    43    1
31    16    17    1
32    16    44    1
33    16    45    1
34    17    18    1
35    17    46    1
36    17    47    1
37    18    19    1
38    18    48    1
39    18    49    1
40    19    20    1
41    19    50    1
42    19    51    1
43    20    52    1
44    20    53    1
45    21    26    ar
46    21    22    ar
47    22    23    ar
48    22    54    1
49    23    24    ar
50    23    55    1
51    24    25    ar
52    24    56    1
53    25    26    ar
54    25    57    1
55    26    58    1
56    27    31    1
57    27    28    1
58    28    29    2
59    28    59    1
60    29    30    1
61    29    60    1
62    30    31    2
63    30    61    1
@<TRIPOS>SUBSTRUCTURE
1   ZINC000523863446 1     RESIDUE    1   A     ZIN   1
@<TRIPOS>MOLECULE
ZINC001400108193
49	50	1	0	0
SMALL
USER_CHARGES
@<TRIPOS>ATOM
1      C1      5.2310   11.8572   -6.3869 C.3      1 ZINC001400108193   -0.0800
2      C2      5.1342   11.0531   -5.1160 C.2      1 ZINC001400108193   -0.0100
3      C3      5.1733   11.5557   -3.8725 C.2      1 ZINC001400108193   -0.1600
4      C4      5.0442   10.4045   -2.9671 C.2      1 ZINC001400108193   -0.2300
5      C5      5.0311   10.4271   -1.4936 C.2      1 ZINC001400108193    0.5900
6      O6      5.1345   11.4839   -0.9007 O.2      1 ZINC001400108193   -0.5300
7      N7      4.9044    9.2766   -0.8031 N.am     1 ZINC001400108193   -0.7300
8      C8      4.8913    9.2991    0.6617 C.3      1 ZINC001400108193    0.1100
9      C9      4.7376    7.8723    1.1923 C.3      1 ZINC001400108193    0.1300
10     H10     5.6161    7.2871    0.9207 H        1 ZINC001400108193    0.1000
11     C11     4.5987    7.9068    2.7156 C.3      1 ZINC001400108193   -0.1600
12     N12     3.5426    7.2596    0.6068 N.am     1 ZINC001400108193   -0.7300
13     C13     3.4562    5.9189    0.5000 C.2      1 ZINC001400108193    0.5200
14     O14     4.3677    5.2196    0.8887 O.2      1 ZINC001400108193   -0.5100
15     C15     2.2269    5.2886   -0.1023 C.3      1 ZINC001400108193    0.0700
16     H16     1.3423    5.6335    0.4331 H        1 ZINC001400108193    0.1000
17     C17     2.1191    5.6873   -1.5755 C.3      1 ZINC001400108193   -0.1800
18     O18     2.3216    3.8665    0.0006 O.3      1 ZINC001400108193   -0.2800
19     C19     1.1551    3.1693    0.0068 C.ar     1 ZINC001400108193    0.1200
20     C20    -0.0489    3.8276   -0.1975 C.ar     1 ZINC001400108193   -0.2100
21     C21    -1.2332    3.1165   -0.1912 C.ar     1 ZINC001400108193   -0.0800
22     C22    -1.2198    1.7507    0.0236 C.ar     1 ZINC001400108193   -0.1200
23     C23    -2.5139    0.9784    0.0361 C.3      1 ZINC001400108193   -0.1100
24     C24    -0.0207    1.0915    0.2222 C.ar     1 ZINC001400108193   -0.0800
25     C25     1.1664    1.7980    0.2168 C.ar     1 ZINC001400108193   -0.1400
26     C26     4.9452    9.3105   -3.7760 C.2      1 ZINC001400108193    0.0200
27     O27     4.9951    9.7200   -5.0473 O.3      1 ZINC001400108193   -0.1700
28     H28     6.2765   11.9449   -6.6825 H        1 ZINC001400108193    0.0900
29     H29     4.6708   11.3570   -7.1769 H        1 ZINC001400108193    0.0800
30     H30     4.8158   12.8512   -6.2205 H        1 ZINC001400108193    0.0900
31     H31     5.2778   12.5938   -3.5937 H        1 ZINC001400108193    0.1600
32     H32     4.8219    8.4337   -1.2760 H        1 ZINC001400108193    0.4000
33     H33     4.0560    9.9076    1.0083 H        1 ZINC001400108193    0.0800
34     H34     5.8263    9.7238    1.0269 H        1 ZINC001400108193    0.0900
35     H35     4.4893    6.8904    3.0936 H        1 ZINC001400108193    0.0700
36     H36     5.4879    8.3627    3.1512 H        1 ZINC001400108193    0.0700
37     H37     3.7202    8.4921    2.9872 H        1 ZINC001400108193    0.0600
38     H38     2.8136    7.8189    0.2959 H        1 ZINC001400108193    0.4000
39     H39     2.0469    6.7720   -1.6541 H        1 ZINC001400108193    0.0800
40     H40     3.0037    5.3423   -2.1109 H        1 ZINC001400108193    0.0800
41     H41     1.2300    5.2314   -2.0112 H        1 ZINC001400108193    0.0800
42     H42    -0.0602    4.8951   -0.3608 H        1 ZINC001400108193    0.1300
43     H43    -2.1708    3.6285   -0.3498 H        1 ZINC001400108193    0.1300
44     H44    -2.7411    0.6339   -0.9727 H        1 ZINC001400108193    0.0700
45     H45    -2.4180    0.1196    0.7004 H        1 ZINC001400108193    0.0700
46     H46    -3.3184    1.6233    0.3897 H        1 ZINC001400108193    0.0700
47     H47    -0.0125    0.0240    0.3857 H        1 ZINC001400108193    0.1300
48     H48     2.1024    1.2832    0.3757 H        1 ZINC001400108193    0.1300
49     H49     4.8413    8.2876   -3.4453 H        1 ZINC001400108193    0.2100
@<TRIPOS>BOND
1     1     2     1
2     1     28    1
3     1     29    1
4     1     30    1
5     2     27    1
6     2     3     2
7     3     4     1
8     3     31    1
9     4     5     1
10    4     26    2
11    5     6     2
12    5     7     am
13    7     8     1
14    7     32    1
15    8     9     1
16    8     33    1
17    8     34    1
18    9     10    1
19    9     11    1
20    9     12    1
21    11    35    1
22    11    36    1
23    11    37    1
24    12    13    am
25    12    38    1
26    13    14    2
27    13    15    1
28    15    16    1
29    15    17    1
30    15    18    1
31    17    39    1
32    17    40    1
33    17    41    1
34    18    19    1
35    19    25    ar
36    19    20    ar
37    20    21    ar
38    20    42    1
39    21    22    ar
40    21    43    1
41    22    23    1
42    22    24    ar
43    23    44    1
44    23    45    1
45    23    46    1
46    24    25    ar
47    24    47    1
48    25    48    1
49    26    27    1
50    26    49    1
@<TRIPOS>SUBSTRUCTURE
1   ZINC001400108193 1     RESIDUE    1   A     ZIN   1
@<TRIPOS>MOLECULE
ZINC000530457945
43	46	1	0	0
SMALL
USER_CHARGES
@<TRIPOS>ATOM
1      C1     -0.4435    1.4930    0.3937 C.3      1 ZINC000530457945   -0.1700
2      C2     -0.2506   -0.0144    0.2165 C.3      1 ZINC000530457945    0.0900
3      H3      0.0464   -0.2320   -0.8094 H        1 ZINC000530457945    0.1100
4      C4     -1.5627   -0.7545    0.5515 C.3      1 ZINC000530457945   -0.1200
5      H5     -2.1884   -0.1512    1.2092 H        1 ZINC000530457945    0.1100
6      C6     -2.3082   -1.1137   -0.7080 C.2      1 ZINC000530457945    0.5300
7      O7     -1.8499   -0.8144   -1.7902 O.2      1 ZINC000530457945   -0.4700
8      N8     -3.4843   -1.7676   -0.6316 N.am     1 ZINC000530457945   -0.6200
9      C9     -4.1752   -2.1006   -1.7988 C.2      1 ZINC000530457945    0.4800
10     N10    -3.7721   -1.8323   -3.0242 N.2      1 ZINC000530457945   -0.3000
11     N11    -4.7483   -2.3328   -3.8975 N.pl3    1 ZINC000530457945   -0.2800
12     C12    -4.8641   -2.3441   -5.2516 C.2      1 ZINC000530457945    0.1400
13     C13    -5.9403   -2.9101   -5.8456 C.2      1 ZINC000530457945   -0.0800
14     Cl14   -6.0709   -2.9150   -7.5766 Cl       1 ZINC000530457945   -0.0200
15     C15    -6.9506   -3.4935   -5.0660 C.2      1 ZINC000530457945   -0.0500
16     C16    -6.8414   -3.4865   -3.7082 C.2      1 ZINC000530457945   -0.0900
17     C17    -5.7150   -2.8926   -3.1116 C.2      1 ZINC000530457945    0.3000
18     N18    -5.3384   -2.7422   -1.8455 N.2      1 ZINC000530457945   -0.5500
19     C19    -1.0677   -2.0298    1.2831 C.3      1 ZINC000530457945   -0.1200
20     C20     0.1556   -1.4878    2.0638 C.3      1 ZINC000530457945    0.0400
21     N21     0.7804   -0.5015    1.1512 N.3      1 ZINC000530457945   -0.4900
22     C22     1.3456    0.5557    1.8681 C.ar     1 ZINC000530457945    0.1000
23     C23     0.7005    1.0592    2.9905 C.ar     1 ZINC000530457945   -0.1600
24     C24     1.2624    2.1042    3.6973 C.ar     1 ZINC000530457945   -0.1100
25     C25     2.4656    2.6496    3.2884 C.ar     1 ZINC000530457945   -0.1300
26     C26     3.1104    2.1508    2.1715 C.ar     1 ZINC000530457945   -0.1100
27     C27     2.5570    1.1021    1.4635 C.ar     1 ZINC000530457945   -0.1000
28     H28     0.5154    1.9981    0.2774 H        1 ZINC000530457945    0.0700
29     H29    -1.1415    1.8609   -0.3583 H        1 ZINC000530457945    0.0600
30     H30    -0.8417    1.6939    1.3883 H        1 ZINC000530457945    0.0600
31     H31    -3.8508   -2.0070    0.2340 H        1 ZINC000530457945    0.4300
32     H32    -4.0908   -1.8972   -5.8588 H        1 ZINC000530457945    0.1800
33     H33    -7.8098   -3.9450   -5.5396 H        1 ZINC000530457945    0.1600
34     H34    -7.6120   -3.9317   -3.0964 H        1 ZINC000530457945    0.1700
35     H35    -1.8289   -2.4093    1.9647 H        1 ZINC000530457945    0.0900
36     H36    -0.7669   -2.7972    0.5698 H        1 ZINC000530457945    0.0900
37     H37    -0.1668   -1.0030    2.9853 H        1 ZINC000530457945    0.0700
38     H38     0.8540   -2.2953    2.2830 H        1 ZINC000530457945    0.0900
39     H39    -0.2395    0.6342    3.3100 H        1 ZINC000530457945    0.1200
40     H40     0.7614    2.4962    4.5701 H        1 ZINC000530457945    0.1200
41     H41     2.9025    3.4673    3.8425 H        1 ZINC000530457945    0.1200
42     H42     4.0500    2.5790    1.8548 H        1 ZINC000530457945    0.1300
43     H43     3.0612    0.7128    0.5914 H        1 ZINC000530457945    0.1300
@<TRIPOS>BOND
1     1     2     1
2     1     28    1
3     1     29    1
4     1     30    1
5     2     3     1
6     2     21    1
7     2     4     1
8     4     5     1
9     4     6     1
10    4     19    1
11    6     7     2
12    6     8     am
13    8     9     1
14    8     31    1
15    9     18    1
16    9     10    2
17    10    11    1
18    11    17    1
19    11    12    1
20    12    13    2
21    12    32    1
22    13    14    1
23    13    15    1
24    15    16    2
25    15    33    1
26    16    17    1
27    16    34    1
28    17    18    2
29    19    20    1
30    19    35    1
31    19    36    1
32    20    21    1
33    20    37    1
34    20    38    1
35    21    22    1
36    22    27    ar
37    22    23    ar
38    23    24    ar
39    23    39    1
40    24    25    ar
41    24    40    1
42    25    26    ar
43    25    41    1
44    26    27    ar
45    26    42    1
46    27    43    1
@<TRIPOS>SUBSTRUCTURE
1   ZINC000530457945 1     RESIDUE    1   A     ZIN   1
@<TRIPOS>MOLECULE
ZINC001016082614
49	51	1	0	0
SMALL
USER_CHARGES
@<TRIPOS>ATOM
1      C1     -0.2022    1.7817   -0.1404 C.3      1 ZINC001016082614   -0.1700
2      C2     -0.1222    0.2546   -0.0900 C.3      1 ZINC001016082614    0.1000
3      N3     -1.4758   -0.3057   -0.0946 N.am     1 ZINC001016082614   -0.6100
4      C4     -2.1315   -0.4742   -1.2601 C.2      1 ZINC001016082614    0.6100
5      O5     -3.2847   -0.8623   -1.2588 O.2      1 ZINC001016082614   -0.5100
6      C6     -1.4546   -0.1897   -2.5304 C.2      1 ZINC001016082614   -0.1100
7      C7     -2.0114   -0.2233   -3.7744 C.2      1 ZINC001016082614    0.0600
8      N8     -1.0545    0.0989   -4.6508 N.2      1 ZINC001016082614   -0.4900
9      C9      0.0563    0.3268   -4.0027 C.2      1 ZINC001016082614    0.2000
10     O10    -0.1581    0.1627   -2.6936 O.3      1 ZINC001016082614   -0.1900
11     C11    -2.1168   -0.6829    1.1676 C.3      1 ZINC001016082614    0.1600
12     H12    -1.4257   -0.4687    1.9828 H        1 ZINC001016082614    0.0800
13     C13    -3.3648    0.1750    1.3524 C.3      1 ZINC001016082614   -0.1300
14     C14    -3.6706    0.3024    2.8244 C.3      1 ZINC001016082614   -0.1300
15     C15    -4.6402   -0.8106    3.2615 C.3      1 ZINC001016082614    0.1000
16     N16    -4.3154   -2.1082    2.6373 N.am     1 ZINC001016082614   -0.6000
17     C17    -5.3238   -2.8722    2.1729 C.2      1 ZINC001016082614    0.5000
18     O18    -5.0809   -3.8986    1.5743 O.2      1 ZINC001016082614   -0.5200
19     C19    -6.7533   -2.4511    2.3974 C.3      1 ZINC001016082614    0.1100
20     H20    -6.8736   -1.3915    2.1718 H        1 ZINC001016082614    0.1100
21     C21    -7.1723   -2.7381    3.8563 C.3      1 ZINC001016082614   -0.1200
22     C22    -7.8136   -4.1394    3.7302 C.3      1 ZINC001016082614   -0.1600
23     C23    -8.2609   -4.2143    2.2870 C.2      1 ZINC001016082614    0.5300
24     O24    -9.0505   -5.0221    1.8455 O.2      1 ZINC001016082614   -0.5300
25     N25    -7.6560   -3.2535    1.5636 N.am     1 ZINC001016082614   -0.7100
26     C26    -2.9600   -2.5931    2.5032 C.3      1 ZINC001016082614    0.1300
27     C27    -2.3778   -2.1303    1.1446 C.3      1 ZINC001016082614   -0.1600
28     H28     0.8049    2.1986   -0.1370 H        1 ZINC001016082614    0.0700
29     H29    -0.7194    2.0886   -1.0495 H        1 ZINC001016082614    0.0500
30     H30    -0.7491    2.1458    0.7293 H        1 ZINC001016082614    0.0600
31     H31     0.4247   -0.1095   -0.9598 H        1 ZINC001016082614    0.0900
32     H32     0.3950   -0.0523    0.8190 H        1 ZINC001016082614    0.0900
33     H33    -3.0373   -0.4661   -4.0090 H        1 ZINC001016082614    0.2000
34     H34     0.9972    0.6076   -4.4525 H        1 ZINC001016082614    0.2600
35     H35    -3.1916    1.1648    0.9300 H        1 ZINC001016082614    0.0700
36     H36    -4.2075   -0.2949    0.8453 H        1 ZINC001016082614    0.0800
37     H37    -2.7451    0.2198    3.3943 H        1 ZINC001016082614    0.0700
38     H38    -4.1256    1.2741    3.0163 H        1 ZINC001016082614    0.0800
39     H39    -4.5915   -0.9171    4.3452 H        1 ZINC001016082614    0.0700
40     H40    -5.6545   -0.5268    2.9806 H        1 ZINC001016082614    0.0800
41     H41    -6.3033   -2.7644    4.5137 H        1 ZINC001016082614    0.1000
42     H42    -7.9007   -2.0056    4.2042 H        1 ZINC001016082614    0.1000
43     H43    -7.0786   -4.9158    3.9426 H        1 ZINC001016082614    0.1100
44     H44    -8.6690   -4.2291    4.3998 H        1 ZINC001016082614    0.1100
45     H45    -7.7988   -3.1111    0.6148 H        1 ZINC001016082614    0.4200
46     H46    -2.3506   -2.1965    3.3153 H        1 ZINC001016082614    0.0800
47     H47    -2.9582   -3.6822    2.5472 H        1 ZINC001016082614    0.0900
48     H48    -3.0886   -2.3594    0.3507 H        1 ZINC001016082614    0.0900
49     H49    -1.4442   -2.6592    0.9532 H        1 ZINC001016082614    0.0700
@<TRIPOS>BOND
1     1     2     1
2     1     28    1
3     1     29    1
4     1     30    1
5     2     3     1
6     2     31    1
7     2     32    1
8     3     4     am
9     3     11    1
10    4     5     2
11    4     6     1
12    6     10    1
13    6     7     2
14    7     8     1
15    7     33    1
16    8     9     2
17    9     10    1
18    9     34    1
19    11    12    1
20    11    27    1
21    11    13    1
22    13    14    1
23    13    35    1
24    13    36    1
25    14    15    1
26    14    37    1
27    14    38    1
28    15    16    1
29    15    39    1
30    15    40    1
31    16    17    am
32    16    26    1
33    17    18    2
34    17    19    1
35    19    20    1
36    19    25    1
37    19    21    1
38    21    22    1
39    21    41    1
40    21    42    1
41    22    23    1
42    22    43    1
43    22    44    1
44    23    24    2
45    23    25    am
46    25    45    1
47    26    27    1
48    26    46    1
49    26    47    1
50    27    48    1
51    27    49    1
@<TRIPOS>SUBSTRUCTURE
1   ZINC001016082614 1     RESIDUE    1   A     ZIN   1
@<TRIPOS>MOLECULE
ZINC000478980774
40	42	1	0	0
SMALL
USER_CHARGES
@<TRIPOS>ATOM
1      C1     -0.0076    1.5196    0.0194 C.3      1 ZINC000478980774   -0.1400
2      C2      0.0045   -0.0102    0.0034 C.3      1 ZINC000478980774   -0.4600
3      H3      0.5302   -0.3787    0.8843 H        1 ZINC000478980774    0.1500
4      C4     -1.4122   -0.5239    0.0125 C.2      1 ZINC000478980774    0.5400
5      O5     -1.9308   -0.8913   -1.0206 O.2      1 ZINC000478980774   -0.5000
6      N6     -2.1031   -0.5750    1.1686 N.am     1 ZINC000478980774   -0.6600
7      C7     -3.4500   -0.9603    1.1633 C.ar     1 ZINC000478980774    0.1600
8      C8     -4.3431   -0.3744    2.0497 C.ar     1 ZINC000478980774   -0.1200
9      C9     -5.6722   -0.7539    2.0460 C.ar     1 ZINC000478980774   -0.0600
10     C10    -6.1168   -1.7196    1.1582 C.ar     1 ZINC000478980774    0.0100
11     O11    -7.3543   -2.2616    0.9567 O.3      1 ZINC000478980774   -0.2900
12     C12    -7.2927   -2.8892   -0.3377 C.3      1 ZINC000478980774    0.5700
13     F13    -8.0781   -4.0468   -0.3606 F        1 ZINC000478980774   -0.1100
14     F14    -7.7030   -1.9988   -1.3357 F        1 ZINC000478980774   -0.1500
15     O15    -5.8999   -3.2198   -0.4919 O.3      1 ZINC000478980774   -0.2800
16     C16    -5.2227   -2.3093    0.2670 C.ar     1 ZINC000478980774    0.0500
17     C17    -3.8929   -1.9244    0.2675 C.ar     1 ZINC000478980774   -0.0900
18     S18     0.8492   -0.5927   -1.4926 S.o      1 ZINC000478980774    1.3000
19     O19     0.1456   -0.1392   -2.6408 O.2      1 ZINC000478980774   -0.7800
20     C20     2.4588    0.2390   -1.4022 C.3      1 ZINC000478980774   -0.4300
21     C21     3.2925   -0.1493   -2.5961 C.ar     1 ZINC000478980774   -0.0600
22     C22     4.1153   -1.2578   -2.5334 C.ar     1 ZINC000478980774   -0.1100
23     C23     4.8803   -1.6142   -3.6286 C.ar     1 ZINC000478980774   -0.1100
24     C24     4.8230   -0.8617   -4.7866 C.ar     1 ZINC000478980774   -0.1100
25     C25     4.0003    0.2474   -4.8505 C.ar     1 ZINC000478980774   -0.1100
26     C26     3.2301    0.6008   -3.7572 C.ar     1 ZINC000478980774   -0.0300
27     Cl27    2.1967    1.9935   -3.8367 Cl       1 ZINC000478980774   -0.0600
28     H28     1.0171    1.8911    0.0128 H        1 ZINC000478980774    0.0800
29     H29    -0.5333    1.8880   -0.8615 H        1 ZINC000478980774    0.0700
30     H30    -0.5152    1.8696    0.9182 H        1 ZINC000478980774    0.0700
31     H31    -1.6678   -0.3449    2.0043 H        1 ZINC000478980774    0.4200
32     H32    -3.9990    0.3786    2.7433 H        1 ZINC000478980774    0.1500
33     H33    -6.3651   -0.2968    2.7368 H        1 ZINC000478980774    0.1500
34     H34    -3.1993   -2.3767   -0.4258 H        1 ZINC000478980774    0.1600
35     H35     2.3102    1.3188   -1.3986 H        1 ZINC000478980774    0.1100
36     H36     2.9716   -0.0603   -0.4882 H        1 ZINC000478980774    0.1300
37     H37     4.1610   -1.8457   -1.6286 H        1 ZINC000478980774    0.1400
38     H38     5.5232   -2.4806   -3.5791 H        1 ZINC000478980774    0.1300
39     H39     5.4213   -1.1401   -5.6415 H        1 ZINC000478980774    0.1300
40     H40     3.9556    0.8352   -5.7554 H        1 ZINC000478980774    0.1300
@<TRIPOS>BOND
1     1     2     1
2     1     28    1
3     1     29    1
4     1     30    1
5     2     3     1
6     2     4     1
7     2     18    1
8     4     5     2
9     4     6     am
10    6     7     1
11    6     31    1
12    7     17    ar
13    7     8     ar
14    8     9     ar
15    8     32    1
16    9     10    ar
17    9     33    1
18    10    16    ar
19    10    11    1
20    11    12    1
21    12    13    1
22    12    14    1
23    12    15    1
24    15    16    1
25    16    17    ar
26    17    34    1
27    18    19    2
28    18    20    1
29    20    21    1
30    20    35    1
31    20    36    1
32    21    26    ar
33    21    22    ar
34    22    23    ar
35    22    37    1
36    23    24    ar
37    23    38    1
38    24    25    ar
39    24    39    1
40    25    26    ar
41    25    40    1
42    26    27    1
@<TRIPOS>SUBSTRUCTURE
1   ZINC000478980774 1     RESIDUE    1   A     ZIN   1
@<TRIPOS>MOLECULE
ZINC000450219577
49	51	1	0	0
SMALL
USER_CHARGES
@<TRIPOS>ATOM
1      C1     -0.0187    1.5258    0.0104 C.3      1 ZINC000450219577   -0.1800
2      C2      0.0021   -0.0041    0.0020 C.3      1 ZINC000450219577    0.1200
3      C3      0.7421   -0.5109    1.2415 C.3      1 ZINC000450219577   -0.1800
4      C4     -1.4333   -0.5336    0.0129 C.3      1 ZINC000450219577   -0.1400
5      O5      0.6817   -0.4723   -1.1926 O.3      1 ZINC000450219577   -0.3400
6      C6      1.9591   -0.0934   -1.3551 C.2      1 ZINC000450219577    0.4700
7      O7      2.4917    0.6064   -0.5265 O.2      1 ZINC000450219577   -0.5000
8      C8      2.7289   -0.5408   -2.5709 C.3      1 ZINC000450219577    0.2000
9      H9      2.2305   -0.1787   -3.4701 H        1 ZINC000450219577    0.1400
10     N10     4.0888    0.0012   -2.5146 N.am     1 ZINC000450219577   -0.7100
11     C11     4.7902    0.1812   -3.6513 C.2      1 ZINC000450219577    0.5800
12     O12     4.2944   -0.1062   -4.7233 O.2      1 ZINC000450219577   -0.5200
13     C13     6.1624    0.7281   -3.5945 C.ar     1 ZINC000450219577   -0.2500
14     C14     6.7545    1.0601   -2.3707 C.ar     1 ZINC000450219577    0.1900
15     N15     7.9835    1.5457   -2.3662 N.ar     1 ZINC000450219577   -0.5100
16     C16     8.6491    1.7182   -3.4914 C.ar     1 ZINC000450219577    0.3800
17     C17    10.0481    2.2752   -3.4334 C.3      1 ZINC000450219577   -0.1100
18     C18    10.8633    2.2738   -4.7282 C.3      1 ZINC000450219577   -0.1500
19     C19    10.3165    3.5892   -4.1700 C.3      1 ZINC000450219577   -0.1500
20     N20     8.1296    1.4183   -4.6658 N.ar     1 ZINC000450219577   -0.5200
21     C21     6.9083    0.9229   -4.7625 C.ar     1 ZINC000450219577    0.2200
22     C22     2.7891   -2.0463   -2.6015 C.ar     1 ZINC000450219577   -0.1100
23     C23     3.7035   -2.7177   -1.8116 C.ar     1 ZINC000450219577   -0.1000
24     C24     3.7586   -4.0986   -1.8396 C.ar     1 ZINC000450219577   -0.1200
25     C25     2.8991   -4.8082   -2.6573 C.ar     1 ZINC000450219577   -0.1100
26     C26     1.9841   -4.1369   -3.4465 C.ar     1 ZINC000450219577   -0.1200
27     C27     1.9260   -2.7561   -3.4153 C.ar     1 ZINC000450219577   -0.0800
28     H28     1.0039    1.9031    0.0027 H        1 ZINC000450219577    0.0800
29     H29    -0.5459    1.8868   -0.8726 H        1 ZINC000450219577    0.0600
30     H30    -0.5289    1.8773    0.9072 H        1 ZINC000450219577    0.0700
31     H31     0.2319   -0.1594    2.1383 H        1 ZINC000450219577    0.0700
32     H32     0.7568   -1.6008    1.2356 H        1 ZINC000450219577    0.0600
33     H33     1.7647   -0.1336    1.2338 H        1 ZINC000450219577    0.0800
34     H34    -1.9605   -0.1726   -0.8702 H        1 ZINC000450219577    0.0700
35     H35    -1.4185   -1.6235    0.0069 H        1 ZINC000450219577    0.0700
36     H36    -1.9435   -0.1821    0.9097 H        1 ZINC000450219577    0.0800
37     H37     4.4845    0.2306   -1.6592 H        1 ZINC000450219577    0.4100
38     H38     6.2156    0.9221   -1.4450 H        1 ZINC000450219577    0.1700
39     H39    10.5846    2.1027   -2.5004 H        1 ZINC000450219577    0.1300
40     H40    11.9364    2.1001   -4.6471 H        1 ZINC000450219577    0.1000
41     H41    10.3877    1.8699   -5.6219 H        1 ZINC000450219577    0.1100
42     H42     9.4811    4.0507   -4.6965 H        1 ZINC000450219577    0.1000
43     H43    11.0297    4.2809   -3.7217 H        1 ZINC000450219577    0.1100
44     H44     6.4896    0.6798   -5.7279 H        1 ZINC000450219577    0.1800
45     H45     4.3750   -2.1633   -1.1727 H        1 ZINC000450219577    0.1200
46     H46     4.4735   -4.6231   -1.2230 H        1 ZINC000450219577    0.1200
47     H47     2.9427   -5.8871   -2.6797 H        1 ZINC000450219577    0.1300
48     H48     1.3128   -4.6913   -4.0856 H        1 ZINC000450219577    0.1300
49     H49     1.2112   -2.2316   -4.0319 H        1 ZINC000450219577    0.1300
@<TRIPOS>BOND
1     1     2     1
2     1     28    1
3     1     29    1
4     1     30    1
5     2     3     1
6     2     4     1
7     2     5     1
8     3     31    1
9     3     32    1
10    3     33    1
11    4     34    1
12    4     35    1
13    4     36    1
14    5     6     1
15    6     7     2
16    6     8     1
17    8     9     1
18    8     10    1
19    8     22    1
20    10    11    am
21    10    37    1
22    11    12    2
23    11    13    1
24    13    21    ar
25    13    14    ar
26    14    15    ar
27    14    38    1
28    15    16    ar
29    16    17    1
30    16    20    ar
31    17    19    1
32    17    18    1
33    17    39    1
34    18    19    1
35    18    40    1
36    18    41    1
37    19    42    1
38    19    43    1
39    20    21    ar
40    21    44    1
41    22    27    ar
42    22    23    ar
43    23    24    ar
44    23    45    1
45    24    25    ar
46    24    46    1
47    25    26    ar
48    25    47    1
49    26    27    ar
50    26    48    1
51    27    49    1
@<TRIPOS>SUBSTRUCTURE
1   ZINC000450219577 1     RESIDUE    1   A     ZIN   1
@<TRIPOS>MOLECULE
ZINC000471198073
61	62	1	0	0
SMALL
USER_CHARGES
@<TRIPOS>ATOM
1      C1      1.2274   -6.3814   -6.3986 C.3      1 ZINC000471198073   -0.1400
2      C2      1.1141   -5.1465   -5.5024 C.3      1 ZINC000471198073   -0.1100
3      C3      1.1026   -3.8862   -6.3698 C.3      1 ZINC000471198073   -0.1500
4      C4     -0.1629   -5.2195   -4.7056 C.2      1 ZINC000471198073    0.5200
5      O5     -0.9090   -6.1661   -4.8411 O.2      1 ZINC000471198073   -0.5200
6      N6     -0.4759   -4.2330   -3.8423 N.am     1 ZINC000471198073   -0.6700
7      C7     -1.7048   -4.2524   -3.1734 C.ar     1 ZINC000471198073    0.1600
8      C8     -2.3724   -3.0629   -2.9110 C.ar     1 ZINC000471198073   -0.1500
9      C9     -3.5863   -3.0809   -2.2508 C.ar     1 ZINC000471198073   -0.0800
10     C10    -4.1400   -4.2810   -1.8497 C.ar     1 ZINC000471198073   -0.1300
11     C11    -3.4769   -5.4749   -2.1087 C.ar     1 ZINC000471198073    0.1500
12     N12    -4.0372   -6.6887   -1.7023 N.am     1 ZINC000471198073   -0.6400
13     C13    -5.3738   -6.8586   -1.7358 C.2      1 ZINC000471198073    0.5100
14     O14    -6.0960   -5.9319   -2.0404 O.2      1 ZINC000471198073   -0.5000
15     C15    -5.9663   -8.1874   -1.3982 C.2      1 ZINC000471198073    0.5100
16     O16    -5.2442   -9.1141   -1.0937 O.2      1 ZINC000471198073   -0.5100
17     N17    -7.3029   -8.3574   -1.4318 N.am     1 ZINC000471198073   -0.7000
18     C18    -7.8841   -9.6607   -1.1006 C.3      1 ZINC000471198073    0.1200
19     C19    -9.4103   -9.5535   -1.1008 C.3      1 ZINC000471198073   -0.0900
20     H20    -9.7449   -9.1335   -2.0494 H        1 ZINC000471198073    0.0800
21     C21   -10.0194  -10.9448   -0.9159 C.3      1 ZINC000471198073   -0.0800
22     C22   -11.5193  -10.8560   -1.0322 C.ar     1 ZINC000471198073   -0.0800
23     C23   -12.2836  -10.5738    0.0845 C.ar     1 ZINC000471198073   -0.1200
24     C24   -13.6594  -10.4924   -0.0221 C.ar     1 ZINC000471198073   -0.1200
25     C25   -14.2709  -10.6928   -1.2456 C.ar     1 ZINC000471198073   -0.1200
26     C26   -13.5065  -10.9741   -2.3625 C.ar     1 ZINC000471198073   -0.1200
27     C27   -12.1304  -11.0512   -2.2567 C.ar     1 ZINC000471198073   -0.1200
28     C28    -9.8578   -8.6444    0.0455 C.3      1 ZINC000471198073   -0.1000
29     C29    -9.3373   -9.2022    1.3717 C.3      1 ZINC000471198073   -0.1600
30     C30    -9.2974   -7.2372   -0.1709 C.3      1 ZINC000471198073   -0.1700
31     C31    -2.2604   -5.4603   -2.7766 C.ar     1 ZINC000471198073   -0.1400
32     H32     2.1510   -6.3286   -6.9749 H        1 ZINC000471198073    0.0700
33     H33     1.2356   -7.2793   -5.7806 H        1 ZINC000471198073    0.0600
34     H34     0.3763   -6.4161   -7.0786 H        1 ZINC000471198073    0.0600
35     H35     1.9652   -5.1118   -4.8224 H        1 ZINC000471198073    0.1000
36     H36     0.2515   -3.9209   -7.0499 H        1 ZINC000471198073    0.0600
37     H37     1.0219   -3.0064   -5.7314 H        1 ZINC000471198073    0.0600
38     H38     2.0263   -3.8334   -6.9462 H        1 ZINC000471198073    0.0700
39     H39     0.1506   -3.5095   -3.6848 H        1 ZINC000471198073    0.4100
40     H40    -1.9421   -2.1227   -3.2230 H        1 ZINC000471198073    0.1300
41     H41    -4.1031   -2.1546   -2.0478 H        1 ZINC000471198073    0.1300
42     H42    -5.0888   -4.2918   -1.3339 H        1 ZINC000471198073    0.1400
43     H43    -3.4642   -7.4090   -1.3960 H        1 ZINC000471198073    0.4200
44     H44    -7.8800   -7.6167   -1.6752 H        1 ZINC000471198073    0.4200
45     H45    -7.5715  -10.3967   -1.8414 H        1 ZINC000471198073    0.0700
46     H46    -7.5418   -9.9709   -0.1134 H        1 ZINC000471198073    0.0800
47     H47    -9.6344  -11.6150   -1.6845 H        1 ZINC000471198073    0.0800
48     H48    -9.7534  -11.3299    0.0685 H        1 ZINC000471198073    0.0800
49     H49   -11.8059  -10.4173    1.0404 H        1 ZINC000471198073    0.1200
50     H50   -14.2566  -10.2727    0.8505 H        1 ZINC000471198073    0.1200
51     H51   -15.3458  -10.6299   -1.3288 H        1 ZINC000471198073    0.1200
52     H52   -13.9842  -11.1309   -3.3183 H        1 ZINC000471198073    0.1200
53     H53   -11.5331  -11.2710   -3.1293 H        1 ZINC000471198073    0.1200
54     H54   -10.9467   -8.6018    0.0716 H        1 ZINC000471198073    0.0800
55     H55    -8.2485   -9.1533    1.3842 H        1 ZINC000471198073    0.0600
56     H56    -9.7370   -8.6116    2.1961 H        1 ZINC000471198073    0.0600
57     H57    -9.6557  -10.2390    1.4798 H        1 ZINC000471198073    0.0600
58     H58    -9.5630   -6.8900   -1.1694 H        1 ZINC000471198073    0.0600
59     H59    -9.7178   -6.5604    0.5729 H        1 ZINC000471198073    0.0600
60     H60    -8.2123   -7.2589   -0.0704 H        1 ZINC000471198073    0.0700
61     H61    -1.7431   -6.3865   -2.9791 H        1 ZINC000471198073    0.1400
@<TRIPOS>BOND
1     1     2     1
2     1     32    1
3     1     33    1
4     1     34    1
5     2     3     1
6     2     4     1
7     2     35    1
8     3     36    1
9     3     37    1
10    3     38    1
11    4     5     2
12    4     6     am
13    6     7     1
14    6     39    1
15    7     31    ar
16    7     8     ar
17    8     9     ar
18    8     40    1
19    9     10    ar
20    9     41    1
21    10    11    ar
22    10    42    1
23    11    12    1
24    11    31    ar
25    12    13    am
26    12    43    1
27    13    14    2
28    13    15    1
29    15    16    2
30    15    17    am
31    17    18    1
32    17    44    1
33    18    19    1
34    18    45    1
35    18    46    1
36    19    20    1
37    19    21    1
38    19    28    1
39    21    22    1
40    21    47    1
41    21    48    1
42    22    27    ar
43    22    23    ar
44    23    24    ar
45    23    49    1
46    24    25    ar
47    24    50    1
48    25    26    ar
49    25    51    1
50    26    27    ar
51    26    52    1
52    27    53    1
53    28    29    1
54    28    30    1
55    28    54    1
56    29    55    1
57    29    56    1
58    29    57    1
59    30    58    1
60    30    59    1
61    30    60    1
62    31    61    1
@<TRIPOS>SUBSTRUCTURE
1   ZINC000471198073 1     RESIDUE    1   A     ZIN   1
@<TRIPOS>MOLECULE
ZINC000331626032
50	52	1	0	0
SMALL
USER_CHARGES
@<TRIPOS>ATOM
1      C1     -0.0042    1.5369    0.0042 C.3      1 ZINC000331626032   -0.2000
2      C2      0.0091    0.0069    0.0019 C.3      1 ZINC000331626032    0.0700
3      H3     -1.0153   -0.3653    0.0137 H        1 ZINC000331626032    0.1100
4      C4      0.7089   -0.4875   -1.2378 C.2      1 ZINC000331626032    0.5200
5      O5      1.7023   -1.1764   -1.1394 O.2      1 ZINC000331626032   -0.5000
6      N6      0.2309   -0.1642   -2.4557 N.am     1 ZINC000331626032   -0.5800
7      C7     -1.0333    0.5660   -2.5763 C.3      1 ZINC000331626032    0.0800
8      C8      0.9423   -0.5260   -3.6051 C.ar     1 ZINC000331626032    0.1400
9      C9      1.1039   -1.8665   -3.9302 C.ar     1 ZINC000331626032   -0.1000
10     C10     1.8065   -2.2203   -5.0654 C.ar     1 ZINC000331626032   -0.1100
11     C11     2.3493   -1.2416   -5.8775 C.ar     1 ZINC000331626032   -0.1200
12     C12     2.1905    0.0940   -5.5563 C.ar     1 ZINC000331626032   -0.1100
13     C13     1.4832    0.4546   -4.4262 C.ar     1 ZINC000331626032   -0.1200
14     N14     0.7202   -0.4784    1.1922 N.3      1 ZINC000331626032   -0.5100
15     C15     2.0610    0.1136    1.2820 C.3      1 ZINC000331626032    0.0500
16     C16     2.8236   -0.5217    2.4468 C.3      1 ZINC000331626032   -0.1100
17     C17     2.0515   -0.2821    3.7472 C.3      1 ZINC000331626032   -0.1100
18     C18     0.6425   -0.8655    3.6097 C.3      1 ZINC000331626032   -0.0400
19     H19     0.7080   -1.9427    3.4563 H        1 ZINC000331626032    0.1000
20     C20    -0.1437   -0.5829    4.8640 C.ar     1 ZINC000331626032    0.2300
21     C21     0.0429    0.6030    5.5563 C.ar     1 ZINC000331626032   -0.2900
22     C22    -0.7004    0.8235    6.7055 C.ar     1 ZINC000331626032    0.1900
23     N23    -1.5603   -0.0988    7.1046 N.ar     1 ZINC000331626032   -0.5700
24     C24    -1.7148   -1.2224    6.4194 C.ar     1 ZINC000331626032    0.5700
25     N25    -2.6239   -2.1660    6.8654 N.pl3    1 ZINC000331626032   -0.8200
26     N26    -1.0241   -1.4615    5.3145 N.ar     1 ZINC000331626032   -0.5700
27     C27    -0.0569   -0.2203    2.4112 C.3      1 ZINC000331626032    0.0700
28     H28     1.0202    1.9091   -0.0076 H        1 ZINC000331626032    0.0700
29     H29    -0.5318    1.8970   -0.8790 H        1 ZINC000331626032    0.0800
30     H30    -0.5104    1.8945    0.9009 H        1 ZINC000331626032    0.0700
31     H31    -0.8358    1.6380   -2.5703 H        1 ZINC000331626032    0.0600
32     H32    -1.5235    0.2921   -3.5106 H        1 ZINC000331626032    0.0800
33     H33    -1.6814    0.3114   -1.7377 H        1 ZINC000331626032    0.0800
34     H34     0.6808   -2.6314   -3.2959 H        1 ZINC000331626032    0.1200
35     H35     1.9326   -3.2626   -5.3187 H        1 ZINC000331626032    0.1300
36     H36     2.8986   -1.5209   -6.7645 H        1 ZINC000331626032    0.1300
37     H37     2.6162    0.8561   -6.1923 H        1 ZINC000331626032    0.1300
38     H38     1.3596    1.4979   -4.1758 H        1 ZINC000331626032    0.1200
39     H39     2.6010   -0.0675    0.3526 H        1 ZINC000331626032    0.0900
40     H40     1.9736    1.1874    1.4477 H        1 ZINC000331626032    0.0300
41     H41     2.9235   -1.5934    2.2751 H        1 ZINC000331626032    0.0800
42     H42     3.8132   -0.0710    2.5229 H        1 ZINC000331626032    0.0700
43     H43     2.5688   -0.7700    4.5732 H        1 ZINC000331626032    0.0700
44     H44     1.9851    0.7888    3.9394 H        1 ZINC000331626032    0.0700
45     H45     0.7523    1.3393    5.2083 H        1 ZINC000331626032    0.1400
46     H46    -0.5786    1.7372    7.2683 H        1 ZINC000331626032    0.1700
47     H47    -3.1388   -2.0008    7.6706 H        1 ZINC000331626032    0.4100
48     H48    -2.7461   -2.9925    6.3726 H        1 ZINC000331626032    0.4100
49     H49    -0.1344    0.8551    2.5716 H        1 ZINC000331626032    0.0400
50     H50    -1.0553   -0.6439    2.3019 H        1 ZINC000331626032    0.0800
@<TRIPOS>BOND
1     1     2     1
2     1     28    1
3     1     29    1
4     1     30    1
5     2     3     1
6     2     4     1
7     2     14    1
8     4     5     2
9     4     6     am
10    6     7     1
11    6     8     1
12    7     31    1
13    7     32    1
14    7     33    1
15    8     13    ar
16    8     9     ar
17    9     10    ar
18    9     34    1
19    10    11    ar
20    10    35    1
21    11    12    ar
22    11    36    1
23    12    13    ar
24    12    37    1
25    13    38    1
26    14    27    1
27    14    15    1
28    15    16    1
29    15    39    1
30    15    40    1
31    16    17    1
32    16    41    1
33    16    42    1
34    17    18    1
35    17    43    1
36    17    44    1
37    18    19    1
38    18    20    1
39    18    27    1
40    20    26    ar
41    20    21    ar
42    21    22    ar
43    21    45    1
44    22    23    ar
45    22    46    1
46    23    24    ar
47    24    25    1
48    24    26    ar
49    25    47    1
50    25    48    1
51    27    49    1
52    27    50    1
@<TRIPOS>SUBSTRUCTURE
1   ZINC000331626032 1     RESIDUE    1   A     ZIN   1
@<TRIPOS>MOLECULE
ZINC000543625960
57	59	1	0	0
SMALL
USER_CHARGES
@<TRIPOS>ATOM
1      C1     -0.2851    2.7081    2.4962 C.3      1 ZINC000543625960   -0.1500
2      C2      0.1246    1.2450    2.6758 C.3      1 ZINC000543625960   -0.1300
3      C3     -0.8723    0.3429    1.9454 C.3      1 ZINC000543625960    0.1500
4      H4     -1.8816    0.5578    2.2964 H        1 ZINC000543625960    0.0800
5      C5     -0.5355   -1.1227    2.2274 C.3      1 ZINC000543625960   -0.1700
6      N6     -0.7928    0.5936    0.5042 N.am     1 ZINC000543625960   -1.1100
7      S7     -2.1595    0.5114   -0.4272 S.o2     1 ZINC000543625960    2.7000
8      O8     -1.7617    0.8336   -1.7528 O.2      1 ZINC000543625960   -0.9600
9      O9     -2.8062   -0.7065   -0.0842 O.2      1 ZINC000543625960   -0.9500
10     C10    -3.2290    1.8085    0.1005 C.ar     1 ZINC000543625960   -0.6600
11     C11    -4.1448    1.5804    1.1109 C.ar     1 ZINC000543625960   -0.0400
12     C12    -4.9861    2.5958    1.5279 C.ar     1 ZINC000543625960   -0.1200
13     C13    -4.9137    3.8413    0.9359 C.ar     1 ZINC000543625960   -0.0600
14     C14    -3.9945    4.0738   -0.0790 C.ar     1 ZINC000543625960    0.1500
15     N15    -3.9186    5.3349   -0.6810 N.am     1 ZINC000543625960   -0.6800
16     C16    -4.1639    6.4438    0.0446 C.2      1 ZINC000543625960    0.7200
17     O17    -4.3557    6.3567    1.2421 O.2      1 ZINC000543625960   -0.5600
18     N18    -4.1966    7.6494   -0.5571 N.am     1 ZINC000543625960   -0.6300
19     C19    -3.9887    7.8976   -1.9954 C.3      1 ZINC000543625960    0.0900
20     C20    -4.7133    9.2379   -2.2752 C.3      1 ZINC000543625960   -0.1000
21     H21    -4.2863    9.7389   -3.1440 H        1 ZINC000543625960    0.1000
22     C22    -6.2172    9.0212   -2.4549 C.3      1 ZINC000543625960   -0.1500
23     C23    -4.4163   10.0301   -0.9746 C.3      1 ZINC000543625960   -0.1200
24     C24    -4.4517    8.9339    0.1110 C.3      1 ZINC000543625960    0.2000
25     H25    -5.4300    8.9196    0.5915 H        1 ZINC000543625960    0.0900
26     C26    -3.3803    9.1949    1.1381 C.ar     1 ZINC000543625960   -0.1400
27     C27    -3.6992    9.7871    2.3502 C.ar     1 ZINC000543625960   -0.0600
28     C28    -2.6808   10.0076    3.2652 C.ar     1 ZINC000543625960   -0.1700
29     C29    -1.3911    9.6324    2.9408 C.ar     1 ZINC000543625960    0.1000
30     N30    -1.1243    9.0711    1.7775 N.ar     1 ZINC000543625960   -0.4800
31     C31    -2.0680    8.8415    0.8857 C.ar     1 ZINC000543625960    0.1200
32     C32    -3.1478    3.0538   -0.4918 C.ar     1 ZINC000543625960   -0.0500
33     H33     0.4251    3.3507    3.0166 H        1 ZINC000543625960    0.0600
34     H34    -0.2899    2.9565    1.4349 H        1 ZINC000543625960    0.0600
35     H35    -1.2824    2.8595    2.9093 H        1 ZINC000543625960    0.0500
36     H36     1.1219    1.0936    2.2627 H        1 ZINC000543625960    0.0700
37     H37     0.1294    0.9966    3.7371 H        1 ZINC000543625960    0.0800
38     H38    -0.5947   -1.3092    3.2997 H        1 ZINC000543625960    0.0700
39     H39    -1.2457   -1.7653    1.7071 H        1 ZINC000543625960    0.0700
40     H40     0.4738   -1.3376    1.8764 H        1 ZINC000543625960    0.0600
41     H41     0.0605    0.8077    0.0955 H        1 ZINC000543625960    0.4200
42     H42    -4.2037    0.6071    1.5752 H        1 ZINC000543625960    0.1400
43     H43    -5.7006    2.4144    2.3171 H        1 ZINC000543625960    0.1400
44     H44    -5.5713    4.6337    1.2615 H        1 ZINC000543625960    0.1400
45     H45    -3.6894    5.4109   -1.6204 H        1 ZINC000543625960    0.4100
46     H46    -2.9249    7.9885   -2.2148 H        1 ZINC000543625960    0.0700
47     H47    -4.4318    7.0962   -2.5866 H        1 ZINC000543625960    0.0800
48     H48    -6.6275    8.5587   -1.5572 H        1 ZINC000543625960    0.0600
49     H49    -6.7049    9.9812   -2.6245 H        1 ZINC000543625960    0.0600
50     H50    -6.3906    8.3694   -3.3112 H        1 ZINC000543625960    0.0600
51     H51    -3.4328   10.4975   -1.0238 H        1 ZINC000543625960    0.0800
52     H52    -5.1901   10.7757   -0.7919 H        1 ZINC000543625960    0.0900
53     H53    -4.7165   10.0704    2.5764 H        1 ZINC000543625960    0.1300
54     H54    -2.8929   10.4672    4.2193 H        1 ZINC000543625960    0.1400
55     H55    -0.5923    9.8010    3.6478 H        1 ZINC000543625960    0.1600
56     H56    -1.8112    8.3798   -0.0563 H        1 ZINC000543625960    0.1400
57     H57    -2.4319    3.2314   -1.2808 H        1 ZINC000543625960    0.1400
@<TRIPOS>BOND
1     1     2     1
2     1     33    1
3     1     34    1
4     1     35    1
5     2     3     1
6     2     36    1
7     2     37    1
8     3     4     1
9     3     5     1
10    3     6     1
11    5     38    1
12    5     39    1
13    5     40    1
14    6     7     am
15    6     41    1
16    7     8     2
17    7     9     2
18    7     10    1
19    10    32    ar
20    10    11    ar
21    11    12    ar
22    11    42    1
23    12    13    ar
24    12    43    1
25    13    14    ar
26    13    44    1
27    14    15    1
28    14    32    ar
29    15    16    am
30    15    45    1
31    16    17    2
32    16    18    am
33    18    24    1
34    18    19    1
35    19    20    1
36    19    46    1
37    19    47    1
38    20    21    1
39    20    22    1
40    20    23    1
41    22    48    1
42    22    49    1
43    22    50    1
44    23    24    1
45    23    51    1
46    23    52    1
47    24    25    1
48    24    26    1
49    26    31    ar
50    26    27    ar
51    27    28    ar
52    27    53    1
53    28    29    ar
54    28    54    1
55    29    30    ar
56    29    55    1
57    30    31    ar
58    31    56    1
59    32    57    1
@<TRIPOS>SUBSTRUCTURE
1   ZINC000543625960 1     RESIDUE    1   A     ZIN   1
@<TRIPOS>MOLECULE
ZINC000989658617
50	52	1	0	0
SMALL
USER_CHARGES
@<TRIPOS>ATOM
1      C1     -0.0173    1.4248    0.0099 C.3      1 ZINC000989658617    0.0300
2      O2      0.0021   -0.0041    0.0020 O.3      1 ZINC000989658617   -0.3700
3      C3      0.6518   -0.5703   -1.1379 C.3      1 ZINC000989658617    0.0500
4      C4      0.6137   -2.0738   -1.0425 C.2      1 ZINC000989658617    0.5300
5      O5      0.0824   -2.6078   -0.0920 O.2      1 ZINC000989658617   -0.5100
6      N6      1.1699   -2.8249   -2.0135 N.am     1 ZINC000989658617   -0.6200
7      C7      1.8506   -2.3091   -3.2151 C.3      1 ZINC000989658617    0.1000
8      C8      1.7441   -3.4538   -4.2534 C.3      1 ZINC000989658617   -0.1500
9      C9      1.9128   -4.7068   -3.3540 C.3      1 ZINC000989658617    0.1400
10     H10     2.9677   -4.9096   -3.1691 H        1 ZINC000989658617    0.1100
11     N11     1.2616   -5.8710   -3.9596 N.am     1 ZINC000989658617   -0.7100
12     C12     1.9310   -6.6308   -4.8490 C.2      1 ZINC000989658617    0.6100
13     O13     3.0752   -6.3501   -5.1487 O.2      1 ZINC000989658617   -0.5200
14     C14     1.2744   -7.8046   -5.4596 C.2      1 ZINC000989658617   -0.0100
15     N15     0.0411   -8.2251   -5.2355 N.2      1 ZINC000989658617   -0.2600
16     N16    -0.2033   -9.2778   -5.9370 N.pl3    1 ZINC000989658617   -0.3700
17     C17     0.8749   -9.6040   -6.6685 C.2      1 ZINC000989658617    0.0100
18     C18     1.8367   -8.6881   -6.3961 C.2      1 ZINC000989658617   -0.1400
19     C19     3.2123   -8.6872   -7.0038 C.3      1 ZINC000989658617   -0.0400
20     C20     3.4651  -10.0675   -7.6253 C.3      1 ZINC000989658617   -0.0900
21     H21     3.5849  -10.8062   -6.8328 H        1 ZINC000989658617    0.0700
22     C22     4.7372  -10.0193   -8.4739 C.3      1 ZINC000989658617   -0.1500
23     C23     2.2768  -10.4557   -8.5093 C.3      1 ZINC000989658617   -0.1100
24     C24     1.0530  -10.7476   -7.6338 C.3      1 ZINC000989658617   -0.0500
25     C25     1.2040   -4.2944   -2.0466 C.3      1 ZINC000989658617    0.1300
26     H26     0.1861   -4.6841   -2.0379 H        1 ZINC000989658617    0.0800
27     C27     1.9781   -4.8344   -0.8424 C.3      1 ZINC000989658617   -0.1600
28     H28     1.0053    1.8021    0.0021 H        1 ZINC000989658617    0.0500
29     H29    -0.5445    1.7859   -0.8732 H        1 ZINC000989658617    0.0400
30     H30    -0.5275    1.7763    0.9067 H        1 ZINC000989658617    0.0900
31     H31     0.1385   -0.2506   -2.0447 H        1 ZINC000989658617    0.0800
32     H32     1.6883   -0.2344   -1.1694 H        1 ZINC000989658617    0.0800
33     H33     1.3463   -1.4154   -3.5827 H        1 ZINC000989658617    0.0800
34     H34     2.8960   -2.0924   -2.9954 H        1 ZINC000989658617    0.0800
35     H35     0.7686   -3.4505   -4.7398 H        1 ZINC000989658617    0.0800
36     H36     2.5459   -3.3900   -4.9890 H        1 ZINC000989658617    0.1000
37     H37     0.3486   -6.0950   -3.7205 H        1 ZINC000989658617    0.4100
38     H38    -1.0429   -9.7635   -5.9369 H        1 ZINC000989658617    0.4500
39     H39     3.2724   -7.9200   -7.7758 H        1 ZINC000989658617    0.0800
40     H40     3.9553   -8.4905   -6.2310 H        1 ZINC000989658617    0.0800
41     H41     5.5835   -9.7436   -7.8447 H        1 ZINC000989658617    0.0600
42     H42     4.9169  -10.9996   -8.9154 H        1 ZINC000989658617    0.0600
43     H43     4.6177   -9.2804   -9.2663 H        1 ZINC000989658617    0.0600
44     H44     2.0460   -9.6347   -9.1880 H        1 ZINC000989658617    0.0700
45     H45     2.5300  -11.3440   -9.0881 H        1 ZINC000989658617    0.0800
46     H46     1.2119  -11.6708   -7.0766 H        1 ZINC000989658617    0.0800
47     H47     0.1672  -10.8447   -8.2615 H        1 ZINC000989658617    0.0800
48     H48     2.9889   -4.4266   -0.8476 H        1 ZINC000989658617    0.0600
49     H49     1.4720   -4.5394    0.0768 H        1 ZINC000989658617    0.0700
50     H50     2.0248   -5.9220   -0.8985 H        1 ZINC000989658617    0.0700
@<TRIPOS>BOND
1     1     2     1
2     1     28    1
3     1     29    1
4     1     30    1
5     2     3     1
6     3     4     1
7     3     31    1
8     3     32    1
9     4     5     2
10    4     6     am
11    6     25    1
12    6     7     1
13    7     8     1
14    7     33    1
15    7     34    1
16    8     9     1
17    8     35    1
18    8     36    1
19    9     10    1
20    9     11    1
21    9     25    1
22    11    12    am
23    11    37    1
24    12    13    2
25    12    14    1
26    14    18    1
27    14    15    2
28    15    16    1
29    16    17    1
30    16    38    1
31    17    24    1
32    17    18    2
33    18    19    1
34    19    20    1
35    19    39    1
36    19    40    1
37    20    21    1
38    20    22    1
39    20    23    1
40    22    41    1
41    22    42    1
42    22    43    1
43    23    24    1
44    23    44    1
45    23    45    1
46    24    46    1
47    24    47    1
48    25    26    1
49    25    27    1
50    27    48    1
51    27    49    1
52    27    50    1
@<TRIPOS>SUBSTRUCTURE
1   ZINC000989658617 1     RESIDUE    1   A     ZIN   1
@<TRIPOS>MOLECULE
ZINC000809503567
45	46	1	0	0
SMALL
USER_CHARGES
@<TRIPOS>ATOM
1      C1     -0.0173    1.4248    0.0099 C.3      1 ZINC000809503567    0.0200
2      O2      0.0021   -0.0041    0.0020 O.3      1 ZINC000809503567   -0.3100
3      C3      0.6249   -0.6175    1.0400 C.ar     1 ZINC000809503567    0.1900
4      C4      1.2015    0.1367    2.0498 C.ar     1 ZINC000809503567   -0.2100
5      C5      1.8353   -0.4889    3.1059 C.ar     1 ZINC000809503567   -0.0200
6      C6      1.9004   -1.8709    3.1646 C.ar     1 ZINC000809503567   -0.1500
7      C7      2.5952   -2.5407    4.3220 C.3      1 ZINC000809503567    0.1700
8      N8      1.6297   -2.7841    5.3966 N.am     1 ZINC000809503567   -0.7000
9      C9      2.0284   -3.3778    6.5390 C.2      1 ZINC000809503567    0.5100
10     O10     3.1870   -3.7107    6.6775 O.2      1 ZINC000809503567   -0.4900
11     C11     1.0434   -3.6261    7.6352 C.2      1 ZINC000809503567    0.5100
12     O12    -0.1153   -3.2932    7.4967 O.2      1 ZINC000809503567   -0.5000
13     N13     1.4420   -4.2198    8.7776 N.am     1 ZINC000809503567   -0.4600
14     C14     0.4765   -4.4632    9.8522 C.3      1 ZINC000809503567    0.0800
15     O15     2.7941   -4.6082    8.9392 O.3      1 ZINC000809503567   -0.1100
16     C16     3.6238   -3.5985    9.5173 C.3      1 ZINC000809503567    0.0800
17     C17     5.0332   -4.1172    9.6421 C.ar     1 ZINC000809503567   -0.0900
18     C18     5.4269   -4.7793   10.7899 C.ar     1 ZINC000809503567   -0.1000
19     C19     6.7198   -5.2551   10.9044 C.ar     1 ZINC000809503567   -0.1300
20     C20     7.6188   -5.0692    9.8709 C.ar     1 ZINC000809503567   -0.1100
21     C21     7.2248   -4.4078    8.7227 C.ar     1 ZINC000809503567   -0.1300
22     C22     5.9307   -3.9358    8.6065 C.ar     1 ZINC000809503567   -0.0800
23     C23     1.3319   -2.6368    2.1691 C.ar     1 ZINC000809503567   -0.0100
24     C24     0.6830   -2.0171    1.0986 C.ar     1 ZINC000809503567   -0.0600
25     C25     0.0904   -2.8065    0.0612 C.1      1 ZINC000809503567    0.2600
26     N26    -0.3797   -3.4328   -0.7618 N.1      1 ZINC000809503567   -0.4100
27     H27     1.0053    1.8021    0.0021 H        1 ZINC000809503567    0.0600
28     H28    -0.5445    1.7859   -0.8732 H        1 ZINC000809503567    0.1100
29     H29    -0.5275    1.7763    0.9067 H        1 ZINC000809503567    0.0600
30     H30     1.1556    1.2150    2.0109 H        1 ZINC000809503567    0.1400
31     H31     2.2830    0.1033    3.8903 H        1 ZINC000809503567    0.1400
32     H32     3.0184   -3.4895    3.9920 H        1 ZINC000809503567    0.0900
33     H33     3.3930   -1.8953    4.6896 H        1 ZINC000809503567    0.0900
34     H34     0.7035   -2.5180    5.2859 H        1 ZINC000809503567    0.4100
35     H35     0.0208   -5.4439    9.7160 H        1 ZINC000809503567    0.0800
36     H36     0.9878   -4.4307   10.8143 H        1 ZINC000809503567    0.0800
37     H37    -0.2974   -3.6961    9.8260 H        1 ZINC000809503567    0.0900
38     H38     3.6172   -2.7141    8.8801 H        1 ZINC000809503567    0.0700
39     H39     3.2439   -3.3375   10.5050 H        1 ZINC000809503567    0.0600
40     H40     4.7246   -4.9246   11.5973 H        1 ZINC000809503567    0.1200
41     H41     7.0276   -5.7718   11.8014 H        1 ZINC000809503567    0.1200
42     H42     8.6290   -5.4402    9.9606 H        1 ZINC000809503567    0.1200
43     H43     7.9273   -4.2622    7.9154 H        1 ZINC000809503567    0.1200
44     H44     5.6229   -3.4191    7.7094 H        1 ZINC000809503567    0.1300
45     H45     1.3850   -3.7143    2.2188 H        1 ZINC000809503567    0.1400
@<TRIPOS>BOND
1     1     2     1
2     1     27    1
3     1     28    1
4     1     29    1
5     2     3     1
6     3     24    ar
7     3     4     ar
8     4     5     ar
9     4     30    1
10    5     6     ar
11    5     31    1
12    6     7     1
13    6     23    ar
14    7     8     1
15    7     32    1
16    7     33    1
17    8     9     am
18    8     34    1
19    9     10    2
20    9     11    1
21    11    12    2
22    11    13    am
23    13    14    1
24    13    15    1
25    14    35    1
26    14    36    1
27    14    37    1
28    15    16    1
29    16    17    1
30    16    38    1
31    16    39    1
32    17    22    ar
33    17    18    ar
34    18    19    ar
35    18    40    1
36    19    20    ar
37    19    41    1
38    20    21    ar
39    20    42    1
40    21    22    ar
41    21    43    1
42    22    44    1
43    23    24    ar
44    23    45    1
45    24    25    1
46    25    26    3
@<TRIPOS>SUBSTRUCTURE
1   ZINC000809503567 1     RESIDUE    1   A     ZIN   1
@<TRIPOS>MOLECULE
ZINC000266467123
48	50	0	0	0
SMALL
USER_CHARGES
@<TRIPOS>ATOM
1 C1       -0.0134     1.5205    -0.0032 C.3    1 <0>      -0.1600
2 C2        0.0042    -0.0094    -0.0015 C.3    1 <0>       0.1500
3 H3        0.5147    -0.3678    -0.8953 H      1 <0>       0.1200
4 N4       -1.3713    -0.5135     0.0105 N.am   1 <0>      -0.7300
5 C5       -2.0487    -0.6514    -1.1465 C.2    1 <0>       0.7100
6 O6       -1.5182    -0.3573    -2.2002 O.2    1 <0>      -0.5900
7 N7       -3.3140    -1.1152    -1.1354 N.am   1 <0>      -0.7100
8 C8       -4.0503    -1.2650    -2.3930 C.3    1 <0>       0.1100
9 H9       -3.4613    -1.1354    -3.3010 H      1 <0>       0.1400
10 C10      -5.5048    -0.7911    -2.4209 C.3    1 <0>      -0.1900
11 C11      -5.1870    -2.2885    -2.4286 C.3    1 <0>      -0.1500
12 H12      -5.3461    -2.8320    -3.3599 H      1 <0>       0.1200
13 C13      -5.4687    -3.0770    -1.1480 C.3    1 <0>      -0.0500
14 C14      -6.5313    -4.1110    -1.4182 C.ar   1 <0>      -0.0800
15 C15      -7.8654    -3.7922    -1.2465 C.ar   1 <0>      -0.1100
16 C16      -8.8400    -4.7406    -1.4944 C.ar   1 <0>      -0.1200
17 C17      -8.4807    -6.0076    -1.9143 C.ar   1 <0>      -0.1200
18 C18      -7.1466    -6.3261    -2.0869 C.ar   1 <0>      -0.1200
19 C19      -6.1721    -5.3764    -1.8432 C.ar   1 <0>      -0.1200
20 C20       0.7305    -0.5020     1.2236 C.2    1 <0>       0.5100
21 O21       0.1558    -1.2050     2.0276 O.2    1 <0>      -0.5100
22 N22       2.0187    -0.1613     1.4257 N.am   1 <0>      -0.6700
23 C23       2.6643    -0.5369     2.6090 C.ar   1 <0>       0.1400
24 C24       3.6022     0.3078     3.1882 C.ar   1 <0>      -0.1400
25 C25       4.2377    -0.0659     4.3562 C.ar   1 <0>      -0.1000
26 C26       3.9413    -1.2797     4.9485 C.ar   1 <0>      -0.1300
27 C27       3.0082    -2.1232     4.3740 C.ar   1 <0>      -0.1000
28 C28       2.3643    -1.7525     3.2097 C.ar   1 <0>      -0.1200
29 H29       1.0099     1.8957    -0.0122 H      1 <0>       0.0700
30 H30      -0.5388     1.8769    -0.8893 H      1 <0>       0.0800
31 H31      -0.5240     1.8790     0.8906 H      1 <0>       0.0700
32 H32      -1.7945    -0.7482     0.8512 H      1 <0>       0.4100
33 H33      -3.7372    -1.3498    -0.2947 H      1 <0>       0.4000
34 H34      -5.9139    -0.3679    -1.5035 H      1 <0>       0.1000
35 H35      -5.8728    -0.3501    -3.3473 H      1 <0>       0.1000
36 H36      -4.5555    -3.5722    -0.8180 H      1 <0>       0.0800
37 H37      -5.8140    -2.3958    -0.3704 H      1 <0>       0.0700
38 H38      -8.1461    -2.8023    -0.9184 H      1 <0>       0.1200
39 H39      -9.8823    -4.4917    -1.3595 H      1 <0>       0.1200
40 H40      -9.2421    -6.7488    -2.1073 H      1 <0>       0.1200
41 H41      -6.8658    -7.3161    -2.4147 H      1 <0>       0.1200
42 H42      -5.1299    -5.6252    -1.9780 H      1 <0>       0.1200
43 H43       2.4983     0.3442     0.7510 H      1 <0>       0.4100
44 H44       3.8346     1.2556     2.7257 H      1 <0>       0.1300
45 H45       4.9672     0.5906     4.8071 H      1 <0>       0.1300
46 H46       4.4398    -1.5698     5.8616 H      1 <0>       0.1200
47 H47       2.7794    -3.0709     4.8386 H      1 <0>       0.1300
48 H48       1.6357    -2.4117     2.7614 H      1 <0>       0.1400
@<TRIPOS>BOND
1    1    2 1
2    1   29 1
3    1   30 1
4    1   31 1
5    2    3 1
6    2    4 1
7    2   20 1
8    4    5 am
9    4   32 1
10    5    6 2
11    5    7 am
12    7    8 1
13    7   33 1
14    8    9 1
15    8   11 1
16    8   10 1
17   10   11 1
18   10   34 1
19   10   35 1
20   11   12 1
21   11   13 1
22   13   14 1
23   13   36 1
24   13   37 1
25   14   19 ar
26   14   15 ar
27   15   16 ar
28   15   38 1
29   16   17 ar
30   16   39 1
31   17   18 ar
32   17   40 1
33   18   19 ar
34   18   41 1
35   19   42 1
36   20   21 2
37   20   22 am
38   22   23 1
39   22   43 1
40   23   28 ar
41   23   24 ar
42   24   25 ar
43   24   44 1
44   25   26 ar
45   25   45 1
46   26   27 ar
47   26   46 1
48   27   28 ar
49   27   47 1
50   28   48 1
@<TRIPOS>MOLECULE
ZINC000008416770
54	55	1	0	0
SMALL
USER_CHARGES
@<TRIPOS>ATOM
1      C1      2.3244   -2.5972    2.9836 C.3      1 ZINC000008416770   -0.1500
2      C2      1.8441   -1.8005    1.7689 C.3      1 ZINC000008416770    0.0600
3      O3      2.3815   -2.3940    0.5576 O.3      1 ZINC000008416770   -0.3500
4      C4      2.0510   -1.8074   -0.6097 C.2      1 ZINC000008416770    0.5100
5      O5      1.3335   -0.8269   -0.6152 O.2      1 ZINC000008416770   -0.5100
6      C6      2.5602   -2.3556   -1.8805 C.ar     1 ZINC000008416770   -0.1500
7      C7      3.3812   -3.4872   -1.8765 C.ar     1 ZINC000008416770   -0.0400
8      C8      3.8543   -3.9964   -3.0646 C.ar     1 ZINC000008416770   -0.1400
9      C9      3.5163   -3.3863   -4.2686 C.ar     1 ZINC000008416770    0.1800
10     N10     3.9973   -3.9048   -5.4700 N.am     1 ZINC000008416770   -0.6700
11     C11     4.1750   -5.2337   -5.6073 C.2      1 ZINC000008416770    0.5200
12     O12     3.8299   -5.9864   -4.7212 O.2      1 ZINC000008416770   -0.5100
13     C13     4.8024   -5.7843   -6.8620 C.3      1 ZINC000008416770   -0.1300
14     C14     4.8876   -7.3088   -6.7629 C.3      1 ZINC000008416770   -0.1000
15     C15     5.5151   -7.8594   -8.0175 C.2      1 ZINC000008416770    0.4700
16     O16     5.8588   -7.1095   -8.9004 O.2      1 ZINC000008416770   -0.5100
17     O17     5.6921   -9.1829   -8.1543 O.3      1 ZINC000008416770   -0.3300
18     C18     6.3025   -9.6423   -9.3891 C.3      1 ZINC000008416770    0.0500
19     C19     6.4196  -11.1445   -9.3630 C.2      1 ZINC000008416770    0.5100
20     O20     6.0272  -11.7668   -8.3987 O.2      1 ZINC000008416770   -0.4900
21     N21     6.9603  -11.7965  -10.4113 N.am     1 ZINC000008416770   -0.6700
22     C22     6.9716  -13.1955  -10.4348 C.ar     1 ZINC000008416770    0.1400
23     C23     8.0219  -13.8728  -11.0404 C.ar     1 ZINC000008416770   -0.1400
24     C24     8.0301  -15.2538  -11.0619 C.ar     1 ZINC000008416770   -0.1000
25     C25     6.9938  -15.9619  -10.4817 C.ar     1 ZINC000008416770   -0.1000
26     C26     7.0058  -17.4687  -10.5074 C.3      1 ZINC000008416770   -0.1200
27     C27     5.9468  -15.2905   -9.8775 C.ar     1 ZINC000008416770   -0.1000
28     C28     5.9355  -13.9098   -9.8476 C.ar     1 ZINC000008416770   -0.1200
29     C29     2.6990   -2.2601   -4.2764 C.ar     1 ZINC000008416770   -0.1600
30     C30     2.2183   -1.7483   -3.0925 C.ar     1 ZINC000008416770   -0.0300
31     H31     1.9808   -3.6283    2.9009 H        1 ZINC000008416770    0.0700
32     H32     3.4136   -2.5791    3.0224 H        1 ZINC000008416770    0.0700
33     H33     1.9211   -2.1516    3.8929 H        1 ZINC000008416770    0.0800
34     H34     0.7550   -1.8185    1.7301 H        1 ZINC000008416770    0.0700
35     H35     2.1877   -0.7694    1.8516 H        1 ZINC000008416770    0.0700
36     H36     3.6442   -3.9610   -0.9423 H        1 ZINC000008416770    0.1400
37     H37     4.4888   -4.8703   -3.0622 H        1 ZINC000008416770    0.1400
38     H38     4.2041   -3.3091   -6.2071 H        1 ZINC000008416770    0.4200
39     H39     4.1936   -5.5097   -7.7234 H        1 ZINC000008416770    0.1100
40     H40     5.8044   -5.3713   -6.9786 H        1 ZINC000008416770    0.1100
41     H41     5.4964   -7.5834   -5.9015 H        1 ZINC000008416770    0.1200
42     H42     3.8857   -7.7218   -6.6462 H        1 ZINC000008416770    0.1200
43     H43     5.6839   -9.3406  -10.2343 H        1 ZINC000008416770    0.1100
44     H44     7.2946   -9.2022   -9.4896 H        1 ZINC000008416770    0.1100
45     H45     7.3416  -11.2960  -11.1495 H        1 ZINC000008416770    0.4100
46     H46     8.8312  -13.3203  -11.4944 H        1 ZINC000008416770    0.1300
47     H47     8.8466  -15.7811  -11.5327 H        1 ZINC000008416770    0.1300
48     H48     7.5165  -17.8432   -9.6203 H        1 ZINC000008416770    0.0700
49     H49     5.9810  -17.8400  -10.5207 H        1 ZINC000008416770    0.0700
50     H50     7.5284  -17.8127  -11.4000 H        1 ZINC000008416770    0.0700
51     H51     5.1388  -15.8465   -9.4252 H        1 ZINC000008416770    0.1300
52     H52     5.1174  -13.3859   -9.3755 H        1 ZINC000008416770    0.1300
53     H53     2.4384   -1.7893   -5.2128 H        1 ZINC000008416770    0.1400
54     H54     1.5841   -0.8742   -3.0993 H        1 ZINC000008416770    0.1400
@<TRIPOS>BOND
1     1     2     1
2     1     31    1
3     1     32    1
4     1     33    1
5     2     3     1
6     2     34    1
7     2     35    1
8     3     4     1
9     4     5     2
10    4     6     1
11    6     30    ar
12    6     7     ar
13    7     8     ar
14    7     36    1
15    8     9     ar
16    8     37    1
17    9     10    1
18    9     29    ar
19    10    11    am
20    10    38    1
21    11    12    2
22    11    13    1
23    13    14    1
24    13    39    1
25    13    40    1
26    14    15    1
27    14    41    1
28    14    42    1
29    15    16    2
30    15    17    1
31    17    18    1
32    18    19    1
33    18    43    1
34    18    44    1
35    19    20    2
36    19    21    am
37    21    22    1
38    21    45    1
39    22    28    ar
40    22    23    ar
41    23    24    ar
42    23    46    1
43    24    25    ar
44    24    47    1
45    25    26    1
46    25    27    ar
47    26    48    1
48    26    49    1
49    26    50    1
50    27    28    ar
51    27    51    1
52    28    52    1
53    29    30    ar
54    29    53    1
55    30    54    1
@<TRIPOS>SUBSTRUCTURE
1   ZINC000008416770 1     RESIDUE    1   A     ZIN   1
@<TRIPOS>MOLECULE
ZINC000467104849
54	56	1	0	0
SMALL
USER_CHARGES
@<TRIPOS>ATOM
1      C1      0.0136    1.3603   -0.0782 C.3      1 ZINC000467104849    0.0200
2      O2      0.0180   -0.0675   -0.0185 O.3      1 ZINC000467104849   -0.3000
3      C3     -1.1918   -0.6885   -0.0037 C.ar     1 ZINC000467104849    0.1000
4      C4     -2.3567    0.0595   -0.0514 C.ar     1 ZINC000467104849   -0.1700
5      C5     -3.5860   -0.5735   -0.0367 C.ar     1 ZINC000467104849   -0.1200
6      C6     -3.6560   -1.9524    0.0261 C.ar     1 ZINC000467104849   -0.0800
7      C7     -4.9983   -2.6372    0.0424 C.3      1 ZINC000467104849   -0.0400
8      C8     -5.1867   -3.4212   -1.2579 C.3      1 ZINC000467104849   -0.1300
9      C9     -5.0665   -3.5976    1.2314 C.3      1 ZINC000467104849   -0.1600
10     C10    -6.0879   -1.6038    0.1682 C.2      1 ZINC000467104849    0.5300
11     O11    -6.8708   -1.4340   -0.7424 O.2      1 ZINC000467104849   -0.5300
12     N12    -6.1924   -0.8682    1.2927 N.am     1 ZINC000467104849   -0.6100
13     C13    -5.1793   -0.9616    2.3558 C.3      1 ZINC000467104849    0.0600
14     C14    -4.7259    0.4573    2.7177 C.3      1 ZINC000467104849    0.0500
15     O15    -5.8740    1.2598    3.0035 O.3      1 ZINC000467104849   -0.3700
16     C16    -6.7648    1.4221    1.8972 C.3      1 ZINC000467104849    0.1300
17     H17    -6.2253    1.8578    1.0562 H        1 ZINC000467104849    0.0800
18     C18    -7.8990    2.3318    2.2934 C.ar     1 ZINC000467104849   -0.0900
19     C19    -8.3902    2.3006    3.5850 C.ar     1 ZINC000467104849   -0.0500
20     C20    -9.4306    3.1343    3.9503 C.ar     1 ZINC000467104849   -0.1400
21     C21    -9.9807    4.0014    3.0223 C.ar     1 ZINC000467104849    0.1200
22     F22   -10.9972    4.8169    3.3784 F        1 ZINC000467104849   -0.1200
23     C23    -9.4875    4.0325    1.7275 C.ar     1 ZINC000467104849   -0.0800
24     Cl24  -10.1758    5.1192    0.5617 Cl       1 ZINC000467104849   -0.0400
25     C25    -8.4435    3.2008    1.3662 C.ar     1 ZINC000467104849   -0.0700
26     C26    -7.3196    0.0567    1.4909 C.3      1 ZINC000467104849    0.0900
27     C27    -2.4969   -2.7052    0.0735 C.ar     1 ZINC000467104849   -0.1600
28     C28    -1.2621   -2.0775    0.0537 C.ar     1 ZINC000467104849    0.1100
29     O29    -0.1213   -2.8163    0.1003 O.3      1 ZINC000467104849   -0.3000
30     C30    -0.2700   -4.2359    0.1687 C.3      1 ZINC000467104849    0.0200
31     H31     1.0401    1.7268   -0.0841 H        1 ZINC000467104849    0.1000
32     H32    -0.4932    1.6844   -0.9872 H        1 ZINC000467104849    0.0600
33     H33    -0.5095    1.7587    0.7911 H        1 ZINC000467104849    0.0600
34     H34    -2.3048    1.1372   -0.0997 H        1 ZINC000467104849    0.1400
35     H35    -4.4935    0.0108   -0.0739 H        1 ZINC000467104849    0.1300
36     H36    -4.4528   -4.2257   -1.3067 H        1 ZINC000467104849    0.0700
37     H37    -6.1912   -3.8436   -1.2853 H        1 ZINC000467104849    0.0700
38     H38    -5.0503   -2.7529   -2.1082 H        1 ZINC000467104849    0.0700
39     H39    -5.0216   -3.0294    2.1605 H        1 ZINC000467104849    0.0700
40     H40    -6.0007   -4.1578    1.1929 H        1 ZINC000467104849    0.0700
41     H41    -4.2257   -4.2899    1.1879 H        1 ZINC000467104849    0.0700
42     H42    -5.6109   -1.4439    3.2329 H        1 ZINC000467104849    0.0800
43     H43    -4.3265   -1.5401    2.0005 H        1 ZINC000467104849    0.1100
44     H44    -4.0799    0.4205    3.5948 H        1 ZINC000467104849    0.1100
45     H45    -4.1790    0.8896    1.8797 H        1 ZINC000467104849    0.0600
46     H46    -7.9611    1.6241    4.3093 H        1 ZINC000467104849    0.1500
47     H47    -9.8143    3.1089    4.9595 H        1 ZINC000467104849    0.1500
48     H48    -8.0584    3.2248    0.3575 H        1 ZINC000467104849    0.1500
49     H49    -7.8859    0.1515    0.5643 H        1 ZINC000467104849    0.1100
50     H50    -7.9670   -0.3261    2.2798 H        1 ZINC000467104849    0.0800
51     H51    -2.5543   -3.7825    0.1224 H        1 ZINC000467104849    0.1400
52     H52    -0.8269   -4.4999    1.0678 H        1 ZINC000467104849    0.0600
53     H53    -0.8109   -4.5873   -0.7100 H        1 ZINC000467104849    0.0600
54     H54     0.7142   -4.7032    0.2005 H        1 ZINC000467104849    0.1000
@<TRIPOS>BOND
1     1     2     1
2     1     31    1
3     1     32    1
4     1     33    1
5     2     3     1
6     3     28    ar
7     3     4     ar
8     4     5     ar
9     4     34    1
10    5     6     ar
11    5     35    1
12    6     7     1
13    6     27    ar
14    7     8     1
15    7     9     1
16    7     10    1
17    8     36    1
18    8     37    1
19    8     38    1
20    9     39    1
21    9     40    1
22    9     41    1
23    10    11    2
24    10    12    am
25    12    26    1
26    12    13    1
27    13    14    1
28    13    42    1
29    13    43    1
30    14    15    1
31    14    44    1
32    14    45    1
33    15    16    1
34    16    17    1
35    16    18    1
36    16    26    1
37    18    25    ar
38    18    19    ar
39    19    20    ar
40    19    46    1
41    20    21    ar
42    20    47    1
43    21    22    1
44    21    23    ar
45    23    24    1
46    23    25    ar
47    25    48    1
48    26    49    1
49    26    50    1
50    27    28    ar
51    27    51    1
52    28    29    1
53    29    30    1
54    30    52    1
55    30    53    1
56    30    54    1
@<TRIPOS>SUBSTRUCTURE
1   ZINC000467104849 1     RESIDUE    1   A     ZIN   1
@<TRIPOS>MOLECULE
ZINC001500042809
46	47	1	0	0
SMALL
USER_CHARGES
@<TRIPOS>ATOM
1      C1     -1.1508   -8.8979    0.7715 C.3      1 ZINC001500042809    0.0200
2      O2     -2.4341   -8.2704    0.8084 O.3      1 ZINC001500042809   -0.3100
3      C3     -2.4616   -6.9175    0.7051 C.ar     1 ZINC001500042809    0.1600
4      C4     -3.6776   -6.2447    0.7340 C.ar     1 ZINC001500042809   -0.1600
5      C5     -3.7097   -4.8720    0.6290 C.ar     1 ZINC001500042809   -0.0200
6      C6     -2.5177   -4.1555    0.4937 C.ar     1 ZINC001500042809   -0.1800
7      C7     -2.5477   -2.6841    0.3809 C.2      1 ZINC001500042809    0.5600
8      O8     -3.6104   -2.0939    0.4057 O.2      1 ZINC001500042809   -0.5300
9      N9     -1.3969   -1.9947    0.2505 N.am     1 ZINC001500042809   -0.7300
10     C10    -1.4266   -0.5342    0.1385 C.3      1 ZINC001500042809    0.1300
11     C11     0.0021   -0.0041    0.0020 C.3      1 ZINC001500042809   -0.1200
12     H12     0.6044   -0.3639    0.8362 H        1 ZINC001500042809    0.0900
13     C13     0.6061   -0.4987   -1.3138 C.3      1 ZINC001500042809   -0.1500
14     C14    -0.0187    1.5258    0.0104 C.3      1 ZINC001500042809    0.1300
15     N15     1.3557    2.0329    0.0000 N.am     1 ZINC001500042809   -0.7300
16     C16     1.5840    3.3611    0.0050 C.2      1 ZINC001500042809    0.5900
17     O17     0.6484    4.1393    0.0181 O.2      1 ZINC001500042809   -0.5200
18     C18     2.9592    3.8685   -0.0054 C.2      1 ZINC001500042809   -0.2800
19     C19     3.3177    5.1871   -0.0018 C.2      1 ZINC001500042809   -0.0100
20     C20     2.3204    6.3168    0.0143 C.3      1 ZINC001500042809   -0.1100
21     C21     4.6787    5.3806   -0.0137 C.2      1 ZINC001500042809   -0.1500
22     C22     5.4111    4.2607   -0.0267 C.2      1 ZINC001500042809   -0.2200
23     S23     4.4118    2.8779   -0.0170 S.3      1 ZINC001500042809    0.1900
24     C24    -1.2978   -4.8360    0.4598 C.ar     1 ZINC001500042809   -0.0400
25     C25    -1.2738   -6.2084    0.5702 C.ar     1 ZINC001500042809   -0.2200
26     H26    -0.6602   -8.6663   -0.1739 H        1 ZINC001500042809    0.0600
27     H27    -0.5420   -8.5287    1.5968 H        1 ZINC001500042809    0.0600
28     H28    -1.2714   -9.9773    0.8634 H        1 ZINC001500042809    0.1000
29     H29    -4.5984   -6.7992    0.8386 H        1 ZINC001500042809    0.1400
30     H30    -4.6549   -4.3501    0.6509 H        1 ZINC001500042809    0.1400
31     H31    -0.5491   -2.4655    0.2308 H        1 ZINC001500042809    0.4000
32     H32    -1.8876   -0.1107    1.0309 H        1 ZINC001500042809    0.0800
33     H33    -2.0055   -0.2489   -0.7398 H        1 ZINC001500042809    0.0800
34     H34     0.6208   -1.5886   -1.3198 H        1 ZINC001500042809    0.0600
35     H35     0.0037   -0.1389   -2.1480 H        1 ZINC001500042809    0.0600
36     H36     1.6239   -0.1210   -1.4111 H        1 ZINC001500042809    0.0600
37     H37    -0.5459    1.8868   -0.8726 H        1 ZINC001500042809    0.0800
38     H38    -0.5289    1.8773    0.9072 H        1 ZINC001500042809    0.0800
39     H39     2.1015    1.4126   -0.0104 H        1 ZINC001500042809    0.4000
40     H40     2.0901    6.5835    1.0458 H        1 ZINC001500042809    0.0800
41     H41     2.7420    7.1810   -0.4990 H        1 ZINC001500042809    0.0700
42     H42     1.4077    6.0029   -0.4922 H        1 ZINC001500042809    0.0900
43     H43     5.1241    6.3644   -0.0130 H        1 ZINC001500042809    0.1500
44     H44     6.4908    4.2357   -0.0377 H        1 ZINC001500042809    0.1700
45     H45    -0.3747   -4.2860    0.3509 H        1 ZINC001500042809    0.1300
46     H46    -0.3311   -6.7348    0.5474 H        1 ZINC001500042809    0.1400
@<TRIPOS>BOND
1     1     2     1
2     1     26    1
3     1     27    1
4     1     28    1
5     2     3     1
6     3     25    ar
7     3     4     ar
8     4     5     ar
9     4     29    1
10    5     6     ar
11    5     30    1
12    6     7     1
13    6     24    ar
14    7     8     2
15    7     9     am
16    9     10    1
17    9     31    1
18    10    11    1
19    10    32    1
20    10    33    1
21    11    12    1
22    11    13    1
23    11    14    1
24    13    34    1
25    13    35    1
26    13    36    1
27    14    15    1
28    14    37    1
29    14    38    1
30    15    16    am
31    15    39    1
32    16    17    2
33    16    18    1
34    18    23    1
35    18    19    2
36    19    20    1
37    19    21    1
38    20    40    1
39    20    41    1
40    20    42    1
41    21    22    2
42    21    43    1
43    22    23    1
44    22    44    1
45    24    25    ar
46    24    45    1
47    25    46    1
@<TRIPOS>SUBSTRUCTURE
1   ZINC001500042809 1     RESIDUE    1   A     ZIN   1
@<TRIPOS>MOLECULE
ZINC001011676549
46	48	1	0	0
SMALL
USER_CHARGES
@<TRIPOS>ATOM
1      C1     -0.0594    1.6572    0.1202 C.3      1 ZINC001011676549   -0.1700
2      C2      0.1248    0.1429    0.0025 C.3      1 ZINC001011676549    0.1300
3      H3     -0.8475   -0.3438   -0.0741 H        1 ZINC001011676549    0.0900
4      C4      0.9763   -0.1871   -1.2415 C.3      1 ZINC001011676549    0.1400
5      H5      0.6369   -1.1125   -1.7068 H        1 ZINC001011676549    0.1100
6      N6      0.9397    0.9179   -2.2027 N.am     1 ZINC001011676549   -0.7200
7      C7      1.1623    0.6809   -3.5107 C.2      1 ZINC001011676549    0.5200
8      O8      1.3929   -0.4471   -3.8919 O.2      1 ZINC001011676549   -0.5300
9      C9      1.1247    1.8176   -4.4994 C.3      1 ZINC001011676549   -0.0900
10     C10     1.4035    1.2893   -5.8830 C.ar     1 ZINC001011676549   -0.1800
11     C11     2.7002    1.2175   -6.3672 C.ar     1 ZINC001011676549    0.1600
12     N12     2.9066    0.7480   -7.5871 N.ar     1 ZINC001011676549   -0.5200
13     C13     1.8983    0.3521   -8.3378 C.ar     1 ZINC001011676549    0.3000
14     N14     0.6527    0.4058   -7.9108 N.ar     1 ZINC001011676549   -0.5200
15     C15     0.3701    0.8583   -6.6997 C.ar     1 ZINC001011676549    0.1600
16     C16     2.4010   -0.3597   -0.6516 C.3      1 ZINC001011676549   -0.1400
17     C17     2.0932   -1.0138    0.7184 C.3      1 ZINC001011676549    0.1000
18     N18     0.8474   -0.3657    1.1775 N.am     1 ZINC001011676549   -0.6100
19     C19     0.4447   -0.2570    2.4591 C.2      1 ZINC001011676549    0.5800
20     O20    -0.5569    0.3774    2.7301 O.2      1 ZINC001011676549   -0.5300
21     C21     1.2167   -0.9057    3.5302 C.2      1 ZINC001011676549   -0.1400
22     C22     1.0786   -2.2057    3.7184 C.2      1 ZINC001011676549   -0.1500
23     C23     1.8194   -2.9509    4.7926 C.3      1 ZINC001011676549    0.0900
24     O24     2.9009   -2.1569    5.2843 O.3      1 ZINC001011676549   -0.3800
25     C25     2.5034   -0.8296    5.6488 C.3      1 ZINC001011676549    0.0600
26     C26     2.1409   -0.0669    4.3697 C.3      1 ZINC001011676549   -0.1100
27     H27     0.9158    2.1361    0.2088 H        1 ZINC001011676549    0.0600
28     H28    -0.5685    2.0314   -0.7680 H        1 ZINC001011676549    0.0700
29     H29    -0.6567    1.8830    1.0035 H        1 ZINC001011676549    0.0800
30     H30     0.7553    1.8200   -1.8978 H        1 ZINC001011676549    0.4100
31     H31     0.1394    2.2834   -4.4801 H        1 ZINC001011676549    0.1100
32     H32     1.8810    2.5559   -4.2332 H        1 ZINC001011676549    0.1100
33     H33     3.5309    1.5406   -5.7573 H        1 ZINC001011676549    0.1700
34     H34     2.0982   -0.0262   -9.3295 H        1 ZINC001011676549    0.2000
35     H35    -0.6529    0.8993   -6.3557 H        1 ZINC001011676549    0.1700
36     H36     3.0039   -1.0212   -1.2737 H        1 ZINC001011676549    0.0900
37     H37     2.8900    0.6058   -0.5225 H        1 ZINC001011676549    0.0800
38     H38     1.9399   -2.0866    0.6008 H        1 ZINC001011676549    0.0800
39     H39     2.9032   -0.8204    1.4217 H        1 ZINC001011676549    0.0800
40     H40     0.4067   -2.7546    3.0752 H        1 ZINC001011676549    0.1200
41     H41     1.1367   -3.1784    5.6113 H        1 ZINC001011676549    0.0700
42     H42     2.2116   -3.8815    4.3823 H        1 ZINC001011676549    0.1100
43     H43     1.6383   -0.8749    6.3103 H        1 ZINC001011676549    0.0600
44     H44     3.3280   -0.3258    6.1532 H        1 ZINC001011676549    0.1000
45     H45     3.0492    0.1549    3.8095 H        1 ZINC001011676549    0.0900
46     H46     1.6401    0.8650    4.6323 H        1 ZINC001011676549    0.0900
@<TRIPOS>BOND
1     1     2     1
2     1     27    1
3     1     28    1
4     1     29    1
5     2     3     1
6     2     18    1
7     2     4     1
8     4     5     1
9     4     6     1
10    4     16    1
11    6     7     am
12    6     30    1
13    7     8     2
14    7     9     1
15    9     10    1
16    9     31    1
17    9     32    1
18    10    15    ar
19    10    11    ar
20    11    12    ar
21    11    33    1
22    12    13    ar
23    13    14    ar
24    13    34    1
25    14    15    ar
26    15    35    1
27    16    17    1
28    16    36    1
29    16    37    1
30    17    18    1
31    17    38    1
32    17    39    1
33    18    19    am
34    19    20    2
35    19    21    1
36    21    26    1
37    21    22    2
38    22    23    1
39    22    40    1
40    23    24    1
41    23    41    1
42    23    42    1
43    24    25    1
44    25    26    1
45    25    43    1
46    25    44    1
47    26    45    1
48    26    46    1
@<TRIPOS>SUBSTRUCTURE
1   ZINC001011676549 1     RESIDUE    1   A     ZIN   1
@<TRIPOS>MOLECULE
ZINC000498646479
58	61	1	0	0
SMALL
USER_CHARGES
@<TRIPOS>ATOM
1      C1      0.0143    1.4972   -0.0477 C.3      1 ZINC000498646479   -0.1500
2      C2      0.0296   -0.0327   -0.0395 C.3      1 ZINC000498646479   -0.0600
3      C3     -1.3862   -0.5491   -0.0326 C.2      1 ZINC000498646479   -0.1700
4      C4     -2.1098   -0.8236   -1.1190 C.2      1 ZINC000498646479   -0.1400
5      C5     -3.3889   -1.2883   -0.8657 C.2      1 ZINC000498646479   -0.1300
6      C6     -3.7039   -1.3912    0.4264 C.2      1 ZINC000498646479   -0.1900
7      C7     -5.0283   -1.8707    0.9621 C.3      1 ZINC000498646479    0.1300
8      N8     -4.9828   -3.3271    1.1486 N.3      1 ZINC000498646479   -0.5300
9      C9     -4.3880   -3.9892   -0.0201 C.3      1 ZINC000498646479    0.0400
10     C10    -4.1923   -5.4781    0.2850 C.3      1 ZINC000498646479    0.1200
11     N11    -5.4784   -6.0370    0.7288 N.am     1 ZINC000498646479   -0.6100
12     C12    -5.9798   -7.1528    0.1631 C.2      1 ZINC000498646479    0.5200
13     O13    -5.4200   -7.6542   -0.7888 O.2      1 ZINC000498646479   -0.5400
14     C14    -7.2360   -7.7774    0.7134 C.3      1 ZINC000498646479   -0.1000
15     H15    -7.3454   -7.5085    1.7640 H        1 ZINC000498646479    0.0900
16     C16    -8.4457   -7.2672   -0.0723 C.3      1 ZINC000498646479   -0.1500
17     C17    -7.1482   -9.2993    0.5830 C.3      1 ZINC000498646479   -0.0600
18     C18    -8.3472   -9.9300    1.2431 C.ar     1 ZINC000498646479   -0.1200
19     C19    -9.5548  -10.0854    0.5389 C.ar     1 ZINC000498646479   -0.0200
20     C20    -9.7035   -9.6689   -0.7919 C.ar     1 ZINC000498646479   -0.1200
21     C21   -10.8987   -9.8470   -1.4205 C.ar     1 ZINC000498646479   -0.1000
22     C22   -11.9763  -10.4362   -0.7614 C.ar     1 ZINC000498646479   -0.1200
23     C23   -11.8679  -10.8525    0.5306 C.ar     1 ZINC000498646479   -0.0900
24     C24   -10.6513  -10.6860    1.2111 C.ar     1 ZINC000498646479   -0.1100
25     C25   -10.4798  -11.0958    2.5429 C.ar     1 ZINC000498646479    0.1400
26     N26    -9.3229  -10.9196    3.1375 N.ar     1 ZINC000498646479   -0.4800
27     C27    -8.2815  -10.3663    2.5317 C.ar     1 ZINC000498646479    0.0800
28     C28    -6.2026   -5.3461    1.8065 C.3      1 ZINC000498646479    0.1100
29     C29    -6.3190   -3.8624    1.4415 C.3      1 ZINC000498646479    0.0400
30     S30    -2.3343   -0.8893    1.4092 S.3      1 ZINC000498646479    0.1300
31     H31     1.0383    1.8708   -0.0527 H        1 ZINC000498646479    0.0600
32     H32    -0.5057    1.8506   -0.9382 H        1 ZINC000498646479    0.0600
33     H33    -0.5005    1.8603    0.8418 H        1 ZINC000498646479    0.0600
34     H34     0.5444   -0.3957   -0.9290 H        1 ZINC000498646479    0.0800
35     H35     0.5496   -0.3860    0.8509 H        1 ZINC000498646479    0.0700
36     H36    -1.7270   -0.6928   -2.1203 H        1 ZINC000498646479    0.1400
37     H37    -4.0796   -1.5475   -1.6545 H        1 ZINC000498646479    0.1300
38     H38    -5.2296   -1.3881    1.9185 H        1 ZINC000498646479    0.0900
39     H39    -5.8188   -1.6195    0.2549 H        1 ZINC000498646479    0.0500
40     H40    -5.0511   -3.8778   -0.8779 H        1 ZINC000498646479    0.0400
41     H41    -3.4232   -3.5340   -0.2441 H        1 ZINC000498646479    0.1000
42     H42    -3.8591   -5.9955   -0.6146 H        1 ZINC000498646479    0.1000
43     H43    -3.4501   -5.5956    1.0746 H        1 ZINC000498646479    0.0800
44     H44    -9.3604   -7.6526    0.3782 H        1 ZINC000498646479    0.0700
45     H45    -8.4605   -6.1775   -0.0493 H        1 ZINC000498646479    0.0600
46     H46    -8.3780   -7.6079   -1.1054 H        1 ZINC000498646479    0.0700
47     H47    -7.1283   -9.5731   -0.4719 H        1 ZINC000498646479    0.0900
48     H48    -6.2384   -9.6536    1.0676 H        1 ZINC000498646479    0.0800
49     H49    -8.8769   -9.2103   -1.3143 H        1 ZINC000498646479    0.1400
50     H50   -11.0134   -9.5264   -2.4454 H        1 ZINC000498646479    0.1300
51     H51   -12.9127  -10.5644   -1.2838 H        1 ZINC000498646479    0.1300
52     H52   -12.7116  -11.3073    1.0281 H        1 ZINC000498646479    0.1300
53     H53   -11.2984  -11.5549    3.0773 H        1 ZINC000498646479    0.1600
54     H54    -7.3572  -10.2505    3.0783 H        1 ZINC000498646479    0.1500
55     H55    -7.1984   -5.7763    1.9128 H        1 ZINC000498646479    0.0900
56     H56    -5.6536   -5.4510    2.7423 H        1 ZINC000498646479    0.0800
57     H57    -6.7548   -3.3153    2.2775 H        1 ZINC000498646479    0.0900
58     H58    -6.9553   -3.7528    0.5633 H        1 ZINC000498646479    0.0400
@<TRIPOS>BOND
1     1     2     1
2     1     31    1
3     1     32    1
4     1     33    1
5     2     3     1
6     2     34    1
7     2     35    1
8     3     30    1
9     3     4     2
10    4     5     1
11    4     36    1
12    5     6     2
13    5     37    1
14    6     7     1
15    6     30    1
16    7     8     1
17    7     38    1
18    7     39    1
19    8     29    1
20    8     9     1
21    9     10    1
22    9     40    1
23    9     41    1
24    10    11    1
25    10    42    1
26    10    43    1
27    11    12    am
28    11    28    1
29    12    13    2
30    12    14    1
31    14    15    1
32    14    16    1
33    14    17    1
34    16    44    1
35    16    45    1
36    16    46    1
37    17    18    1
38    17    47    1
39    17    48    1
40    18    27    ar
41    18    19    ar
42    19    24    ar
43    19    20    ar
44    20    21    ar
45    20    49    1
46    21    22    ar
47    21    50    1
48    22    23    ar
49    22    51    1
50    23    24    ar
51    23    52    1
52    24    25    ar
53    25    26    ar
54    25    53    1
55    26    27    ar
56    27    54    1
57    28    29    1
58    28    55    1
59    28    56    1
60    29    57    1
61    29    58    1
@<TRIPOS>SUBSTRUCTURE
1   ZINC000498646479 1     RESIDUE    1   A     ZIN   1
@<TRIPOS>MOLECULE
ZINC000470948647
57	60	1	0	0
SMALL
USER_CHARGES
@<TRIPOS>ATOM
1      C1      0.0242    1.5032    0.0069 C.3      1 ZINC000470948647   -0.1100
2      C2      0.0334   -0.0037   -0.0006 C.ar     1 ZINC000470948647   -0.1000
3      C3      0.6309   -0.6847   -1.0450 C.ar     1 ZINC000470948647   -0.1100
4      C4      0.6410   -2.0660   -1.0548 C.ar     1 ZINC000470948647   -0.1100
5      C5      0.0506   -2.7705   -0.0142 C.ar     1 ZINC000470948647    0.1400
6      N6      0.0595   -4.1697   -0.0209 N.am     1 ZINC000470948647   -0.6700
7      C7     -0.0386   -4.8386   -1.1868 C.2      1 ZINC000470948647    0.5100
8      O8     -0.0523   -4.2300   -2.2359 O.2      1 ZINC000470948647   -0.4800
9      C9     -0.1312   -6.3428   -1.1871 C.3      1 ZINC000470948647    0.1200
10     H10     0.7579   -6.7478   -0.7039 H        1 ZINC000470948647    0.1200
11     C11    -1.3752   -6.7642   -0.3724 C.3      1 ZINC000470948647   -0.0700
12     S12    -2.6090   -7.0393   -1.7122 S.3      1 ZINC000470948647   -0.2500
13     C13    -1.3498   -7.6107   -2.9272 C.3      1 ZINC000470948647    0.1600
14     N14    -0.1682   -6.8089   -2.5649 N.am     1 ZINC000470948647   -0.6000
15     C15     0.8124   -6.5281   -3.4459 C.2      1 ZINC000470948647    0.6300
16     O16     1.7683   -5.8616   -3.0994 O.2      1 ZINC000470948647   -0.5100
17     C17     0.7258   -7.0302   -4.8323 C.2      1 ZINC000470948647   -0.0100
18     N18    -0.2489   -7.7547   -5.3447 N.2      1 ZINC000470948647   -0.2700
19     N19    -0.0023   -8.0163   -6.5780 N.pl3    1 ZINC000470948647   -0.2700
20     C20    -0.8719   -8.8008   -7.4582 C.3      1 ZINC000470948647    0.1500
21     C21    -0.8049   -8.2346   -8.8780 C.3      1 ZINC000470948647   -0.1300
22     C22    -1.7130   -9.0540   -9.7972 C.3      1 ZINC000470948647   -0.1200
23     C23    -1.2476  -10.5114   -9.8068 C.3      1 ZINC000470948647   -0.1300
24     C24    -1.3146  -11.0776   -8.3870 C.3      1 ZINC000470948647   -0.1200
25     C25    -0.4065  -10.2583   -7.4678 C.3      1 ZINC000470948647   -0.1300
26     C26     1.1736   -7.4641   -6.9465 C.2      1 ZINC000470948647   -0.0100
27     C27     1.6703   -6.8196   -5.8647 C.2      1 ZINC000470948647   -0.1700
28     C28    -0.5485   -2.0834    1.0338 C.ar     1 ZINC000470948647   -0.1100
29     C29    -1.1900   -2.8441    2.1655 C.3      1 ZINC000470948647   -0.1100
30     C30    -0.5509   -0.7025    1.0401 C.ar     1 ZINC000470948647   -0.1000
31     H31     0.9173    1.8695    0.5134 H        1 ZINC000470948647    0.0700
32     H32     0.0114    1.8716   -1.0189 H        1 ZINC000470948647    0.0700
33     H33    -0.8626    1.8586    0.5317 H        1 ZINC000470948647    0.0700
34     H34     1.0900   -0.1362   -1.8541 H        1 ZINC000470948647    0.1200
35     H35     1.1073   -2.5974   -1.8713 H        1 ZINC000470948647    0.1400
36     H36     0.1363   -4.6583    0.8136 H        1 ZINC000470948647    0.4100
37     H37    -1.1872   -7.6839    0.1817 H        1 ZINC000470948647    0.1200
38     H38    -1.6947   -5.9648    0.2961 H        1 ZINC000470948647    0.1200
39     H39    -1.1491   -8.6750   -2.8043 H        1 ZINC000470948647    0.1000
40     H40    -1.6683   -7.3913   -3.9463 H        1 ZINC000470948647    0.1400
41     H41    -1.8982   -8.7496   -7.0947 H        1 ZINC000470948647    0.1100
42     H42    -1.1364   -7.1963   -8.8711 H        1 ZINC000470948647    0.0800
43     H43     0.2215   -8.2859   -9.2415 H        1 ZINC000470948647    0.0800
44     H44    -2.7393   -9.0027   -9.4337 H        1 ZINC000470948647    0.0700
45     H45    -1.6652   -8.6506  -10.8087 H        1 ZINC000470948647    0.0800
46     H46    -1.8945  -11.0951  -10.4616 H        1 ZINC000470948647    0.0700
47     H47    -0.2212  -10.5627  -10.1703 H        1 ZINC000470948647    0.0700
48     H48    -2.3409  -11.0263   -8.0235 H        1 ZINC000470948647    0.0700
49     H49    -0.9830  -12.1159   -8.3939 H        1 ZINC000470948647    0.0700
50     H50     0.6199  -10.3095   -7.8313 H        1 ZINC000470948647    0.0700
51     H51    -0.4542  -10.6616   -6.4563 H        1 ZINC000470948647    0.0700
52     H52     1.6302   -7.5218   -7.9235 H        1 ZINC000470948647    0.1800
53     H53     2.5961   -6.2672   -5.8010 H        1 ZINC000470948647    0.1600
54     H54    -0.4516   -3.0242    2.9468 H        1 ZINC000470948647    0.0700
55     H55    -2.0155   -2.2608    2.5734 H        1 ZINC000470948647    0.0700
56     H56    -1.5668   -3.7974    1.7950 H        1 ZINC000470948647    0.0600
57     H57    -1.0163   -0.1677    1.8548 H        1 ZINC000470948647    0.1300
@<TRIPOS>BOND
1     1     2     1
2     1     31    1
3     1     32    1
4     1     33    1
5     2     30    ar
6     2     3     ar
7     3     4     ar
8     3     34    1
9     4     5     ar
10    4     35    1
11    5     6     1
12    5     28    ar
13    6     7     am
14    6     36    1
15    7     8     2
16    7     9     1
17    9     10    1
18    9     14    1
19    9     11    1
20    11    12    1
21    11    37    1
22    11    38    1
23    12    13    1
24    13    14    1
25    13    39    1
26    13    40    1
27    14    15    am
28    15    16    2
29    15    17    1
30    17    27    1
31    17    18    2
32    18    19    1
33    19    20    1
34    19    26    1
35    20    25    1
36    20    21    1
37    20    41    1
38    21    22    1
39    21    42    1
40    21    43    1
41    22    23    1
42    22    44    1
43    22    45    1
44    23    24    1
45    23    46    1
46    23    47    1
47    24    25    1
48    24    48    1
49    24    49    1
50    25    50    1
51    25    51    1
52    26    27    2
53    26    52    1
54    27    53    1
55    28    29    1
56    28    30    ar
57    29    54    1
58    29    55    1
59    29    56    1
60    30    57    1
@<TRIPOS>SUBSTRUCTURE
1   ZINC000470948647 1     RESIDUE    1   A     ZIN   1
@<TRIPOS>MOLECULE
ZINC000410354665
53	56	1	0	0
SMALL
USER_CHARGES
@<TRIPOS>ATOM
1      C1      0.0428    1.4275   -0.0359 C.3      1 ZINC000410354665    0.0200
2      O2      0.0333   -0.0014   -0.0334 O.3      1 ZINC000410354665   -0.3000
3      C3      0.8208   -0.6257   -0.9498 C.ar     1 ZINC000410354665    0.0900
4      C4      1.5867    0.1199   -1.8243 C.ar     1 ZINC000410354665   -0.1100
5      C5      2.3953   -0.5250   -2.7645 C.ar     1 ZINC000410354665   -0.1400
6      C6      3.2163    0.2671   -3.7012 C.2      1 ZINC000410354665    0.5700
7      O7      3.1896    1.4818   -3.6554 O.2      1 ZINC000410354665   -0.5300
8      N8      3.9954   -0.3562   -4.6072 N.am     1 ZINC000410354665   -0.7200
9      C9      4.8102    0.4300   -5.5369 C.3      1 ZINC000410354665    0.1700
10     C10     5.5818   -0.4993   -6.4381 C.ar     1 ZINC000410354665   -0.1000
11     C11     6.8374   -0.9390   -6.0632 C.ar     1 ZINC000410354665   -0.0900
12     C12     7.5495   -1.7902   -6.8889 C.ar     1 ZINC000410354665   -0.0300
13     Cl13    9.1265   -2.3401   -6.4151 Cl       1 ZINC000410354665   -0.0400
14     C14     7.0040   -2.2053   -8.0954 C.ar     1 ZINC000410354665    0.0700
15     O15     7.7195   -3.0370   -8.9014 O.3      1 ZINC000410354665   -0.2900
16     C16     6.9914   -3.7257   -9.9239 C.3      1 ZINC000410354665    0.0200
17     C17     6.0733   -2.7149  -10.6242 C.3      1 ZINC000410354665    0.0200
18     O18     5.1840   -2.1646   -9.6463 O.3      1 ZINC000410354665   -0.3000
19     C19     5.7400   -1.7658   -8.4697 C.ar     1 ZINC000410354665    0.0600
20     C20     5.0302   -0.9150   -7.6354 C.ar     1 ZINC000410354665   -0.0900
21     C21     2.4251   -1.9204   -2.8155 C.ar     1 ZINC000410354665   -0.0800
22     C22     1.6579   -2.6586   -1.9402 C.ar     1 ZINC000410354665   -0.1900
23     C23     0.8593   -2.0186   -1.0026 C.ar     1 ZINC000410354665    0.1400
24     O24     0.1053   -2.7503   -0.1424 O.3      1 ZINC000410354665   -0.2900
25     C25     0.0888   -4.1659   -0.3369 C.3      1 ZINC000410354665    0.0700
26     C26     1.2383   -4.8355    0.4564 C.3      1 ZINC000410354665   -0.1500
27     C27     0.7280   -6.2866    0.6383 C.3      1 ZINC000410354665   -0.1200
28     C28    -0.7865   -6.1270    0.8845 C.3      1 ZINC000410354665   -0.1200
29     C29    -1.1929   -4.7786    0.2644 C.3      1 ZINC000410354665   -0.1200
30     H30     1.0546    1.7845    0.1558 H        1 ZINC000410354665    0.0600
31     H31    -0.2930    1.7914   -1.0069 H        1 ZINC000410354665    0.0600
32     H32    -0.6261    1.7966    0.7416 H        1 ZINC000410354665    0.1000
33     H33     1.5607    1.1987   -1.7820 H        1 ZINC000410354665    0.1500
34     H34     4.0167   -1.3252   -4.6438 H        1 ZINC000410354665    0.4000
35     H35     4.1620    1.0658   -6.1400 H        1 ZINC000410354665    0.0800
36     H36     5.5066    1.0513   -4.9738 H        1 ZINC000410354665    0.0900
37     H37     7.2633   -0.6171   -5.1244 H        1 ZINC000410354665    0.1500
38     H38     7.6871   -4.1525  -10.6464 H        1 ZINC000410354665    0.1300
39     H39     6.3919   -4.5189   -9.4773 H        1 ZINC000410354665    0.0800
40     H40     6.6724   -1.9185  -11.0657 H        1 ZINC000410354665    0.0800
41     H41     5.4987   -3.2177  -11.4020 H        1 ZINC000410354665    0.1300
42     H42     4.0468   -0.5738   -7.9234 H        1 ZINC000410354665    0.1400
43     H43     3.0491   -2.4209   -3.5411 H        1 ZINC000410354665    0.1300
44     H44     1.6817   -3.7376   -1.9810 H        1 ZINC000410354665    0.1400
45     H45     0.1647   -4.4052   -1.3976 H        1 ZINC000410354665    0.0800
46     H46     2.1642   -4.8208   -0.1186 H        1 ZINC000410354665    0.0700
47     H47     1.3747   -4.3500    1.4227 H        1 ZINC000410354665    0.0800
48     H48     0.9084   -6.8704   -0.2643 H        1 ZINC000410354665    0.0700
49     H49     1.2071   -6.7544    1.4984 H        1 ZINC000410354665    0.0700
50     H50    -1.3308   -6.9390    0.4022 H        1 ZINC000410354665    0.0700
51     H51    -0.9924   -6.1229    1.9549 H        1 ZINC000410354665    0.0700
52     H52    -1.5961   -4.1202    1.0339 H        1 ZINC000410354665    0.0800
53     H53    -1.9345   -4.9362   -0.5187 H        1 ZINC000410354665    0.0700
@<TRIPOS>BOND
1     1     2     1
2     1     30    1
3     1     31    1
4     1     32    1
5     2     3     1
6     3     23    ar
7     3     4     ar
8     4     5     ar
9     4     33    1
10    5     6     1
11    5     21    ar
12    6     7     2
13    6     8     am
14    8     9     1
15    8     34    1
16    9     10    1
17    9     35    1
18    9     36    1
19    10    20    ar
20    10    11    ar
21    11    12    ar
22    11    37    1
23    12    13    1
24    12    14    ar
25    14    19    ar
26    14    15    1
27    15    16    1
28    16    17    1
29    16    38    1
30    16    39    1
31    17    18    1
32    17    40    1
33    17    41    1
34    18    19    1
35    19    20    ar
36    20    42    1
37    21    22    ar
38    21    43    1
39    22    23    ar
40    22    44    1
41    23    24    1
42    24    25    1
43    25    29    1
44    25    26    1
45    25    45    1
46    26    27    1
47    26    46    1
48    26    47    1
49    27    28    1
50    27    48    1
51    27    49    1
52    28    29    1
53    28    50    1
54    28    51    1
55    29    52    1
56    29    53    1
@<TRIPOS>SUBSTRUCTURE
1   ZINC000410354665 1     RESIDUE    1   A     ZIN   1
@<TRIPOS>MOLECULE
ZINC000098105561
36	38	1	0	0
SMALL
USER_CHARGES
@<TRIPOS>ATOM
1      C1     -0.0181    0.9427   -0.6359 C.3      1 ZINC000098105561   -0.0800
2      C2     -0.0266   -0.5294   -0.3139 C.2      1 ZINC000098105561    0.0900
3      C3     -0.0643   -1.4740   -1.2566 C.2      1 ZINC000098105561   -0.2700
4      S4     -0.0600   -3.0439   -0.4571 S.3      1 ZINC000098105561    0.1600
5      C5     -0.0080   -2.2774    1.0702 C.2      1 ZINC000098105561    0.2500
6      N6      0.0192   -2.9379    2.2906 N.am     1 ZINC000098105561   -0.5200
7      C7      0.0032   -4.4022    2.3315 C.3      1 ZINC000098105561    0.0500
8      C8      1.4340   -4.9313    2.2145 C.3      1 ZINC000098105561    0.4400
9      F9      2.2002   -4.4434    3.2786 F        1 ZINC000098105561   -0.1700
10     F10     1.4188   -6.3297    2.2536 F        1 ZINC000098105561   -0.1700
11     F11     1.9915   -4.5047    1.0044 F        1 ZINC000098105561   -0.1700
12     C12     0.0603   -2.2321    3.4381 C.2      1 ZINC000098105561    0.5800
13     O13    -0.0324   -1.0208    3.4100 O.2      1 ZINC000098105561   -0.4100
14     C14     0.2184   -2.9328    4.7333 C.2      1 ZINC000098105561    0.0800
15     C15     0.1188   -2.2124    5.8777 C.2      1 ZINC000098105561   -0.2000
16     C16     0.2939   -2.9147    7.1603 C.2      1 ZINC000098105561    0.4200
17     O17     0.0017   -2.3981    8.2244 O.2      1 ZINC000098105561   -0.4300
18     C18     0.8446   -4.2827    7.0797 C.ar     1 ZINC000098105561   -0.2200
19     C19     1.2952   -4.9543    8.2141 C.ar     1 ZINC000098105561   -0.0300
20     C20     1.8070   -6.2277    8.0902 C.ar     1 ZINC000098105561   -0.1400
21     C21     1.8736   -6.8356    6.8446 C.ar     1 ZINC000098105561   -0.0500
22     C22     1.4289   -6.1822    5.7156 C.ar     1 ZINC000098105561   -0.1400
23     C23     0.9048   -4.8977    5.8167 C.ar     1 ZINC000098105561    0.1400
24     O24     0.4483   -4.2529    4.7248 O.3      1 ZINC000098105561   -0.2300
25     N25     0.0081   -0.9892    0.9223 N.2      1 ZINC000098105561   -0.4600
26     H26     1.0110    1.2844   -0.7469 H        1 ZINC000098105561    0.0800
27     H27    -0.5602    1.1144   -1.5658 H        1 ZINC000098105561    0.0800
28     H28    -0.4988    1.4942    0.1721 H        1 ZINC000098105561    0.0800
29     H29    -0.0929   -1.3052   -2.3229 H        1 ZINC000098105561    0.1900
30     H30    -0.4311   -4.7346    3.2744 H        1 ZINC000098105561    0.1700
31     H31    -0.5937   -4.7824    1.5025 H        1 ZINC000098105561    0.1400
32     H32    -0.0832   -1.1519    5.8495 H        1 ZINC000098105561    0.1800
33     H33     1.2442   -4.4804    9.1832 H        1 ZINC000098105561    0.1400
34     H34     2.1578   -6.7543    8.9655 H        1 ZINC000098105561    0.1400
35     H35     2.2793   -7.8328    6.7587 H        1 ZINC000098105561    0.1400
36     H36     1.4869   -6.6675    4.7525 H        1 ZINC000098105561    0.1400
@<TRIPOS>BOND
1     1     2     1
2     1     26    1
3     1     27    1
4     1     28    1
5     2     25    1
6     2     3     2
7     3     4     1
8     3     29    1
9     4     5     1
10    5     6     1
11    5     25    2
12    6     7     1
13    6     12    am
14    7     8     1
15    7     30    1
16    7     31    1
17    8     9     1
18    8     10    1
19    8     11    1
20    12    13    2
21    12    14    1
22    14    24    1
23    14    15    2
24    15    16    1
25    15    32    1
26    16    17    2
27    16    18    1
28    18    23    ar
29    18    19    ar
30    19    20    ar
31    19    33    1
32    20    21    ar
33    20    34    1
34    21    22    ar
35    21    35    1
36    22    23    ar
37    22    36    1
38    23    24    1
@<TRIPOS>SUBSTRUCTURE
1   ZINC000098105561 1     RESIDUE    1   A     ZIN   1
@<TRIPOS>MOLECULE
ZINC000464752079
51	54	1	0	0
SMALL
USER_CHARGES
@<TRIPOS>ATOM
1      C1     -0.0184    1.5028    0.0103 C.3      1 ZINC000464752079   -0.1200
2      C2      0.0021   -0.0041    0.0020 C.ar     1 ZINC000464752079   -0.0800
3      C3      0.0057   -0.6885   -1.1987 C.ar     1 ZINC000464752079   -0.1200
4      C4      0.0245   -2.0710   -1.2063 C.ar     1 ZINC000464752079   -0.1200
5      C5      0.0400   -2.7685   -0.0132 C.ar     1 ZINC000464752079   -0.1300
6      C6      0.0373   -2.0838    1.1879 C.ar     1 ZINC000464752079   -0.0900
7      C7      0.0229   -0.7017    1.1955 C.ar     1 ZINC000464752079   -0.0800
8      C8      0.0199    0.0446    2.5047 C.3      1 ZINC000464752079    0.2000
9      H9      0.6083    0.9575    2.4121 H        1 ZINC000464752079    0.0900
10     C10    -1.4287    0.3924    2.9073 C.3      1 ZINC000464752079   -0.1200
11     C11    -1.4215    0.1845    4.4449 C.3      1 ZINC000464752079   -0.1300
12     C12    -0.4624   -1.0232    4.5909 C.3      1 ZINC000464752079    0.1000
13     N13     0.5793   -0.8053    3.5660 N.am     1 ZINC000464752079   -0.6300
14     C14     1.8304   -1.3054    3.5989 C.2      1 ZINC000464752079    0.7200
15     O15     2.6071   -1.0600    2.6962 O.2      1 ZINC000464752079   -0.5700
16     N16     2.2205   -2.0776    4.6323 N.am     1 ZINC000464752079   -0.7400
17     C17     3.5804   -2.6212    4.6680 C.3      1 ZINC000464752079    0.1900
18     C18     3.7601   -3.4432    5.9183 C.ar     1 ZINC000464752079   -0.1200
19     C19     4.4019   -2.8998    7.0152 C.ar     1 ZINC000464752079   -0.0500
20     C20     4.5691   -3.6529    8.1658 C.ar     1 ZINC000464752079    0.0100
21     C21     4.0893   -4.9592    8.2168 C.ar     1 ZINC000464752079    0.0800
22     C22     3.4453   -5.5013    7.1166 C.ar     1 ZINC000464752079   -0.1800
23     C23     3.2763   -4.7421    5.9688 C.ar     1 ZINC000464752079    0.1400
24     O24     2.6439   -5.2742    4.8890 O.3      1 ZINC000464752079   -0.3100
25     C25     2.1796   -6.6204    5.0074 C.3      1 ZINC000464752079    0.4100
26     F26     3.2638   -7.4669    5.2628 F        1 ZINC000464752079   -0.2000
27     F27     1.2625   -6.7066    6.0603 F        1 ZINC000464752079   -0.2000
28     O28     4.3755   -5.4816    9.4450 O.3      1 ZINC000464752079   -0.3000
29     C29     5.3930   -4.6268    9.9992 C.3      1 ZINC000464752079    0.2100
30     O30     5.1564   -3.3569    9.3631 O.3      1 ZINC000464752079   -0.3000
31     H31     1.0042    1.8801    0.0026 H        1 ZINC000464752079    0.0700
32     H32    -0.5455    1.8639   -0.8728 H        1 ZINC000464752079    0.0700
33     H33    -0.5286    1.8543    0.9071 H        1 ZINC000464752079    0.0700
34     H34    -0.0064   -0.1435   -2.1310 H        1 ZINC000464752079    0.1200
35     H35     0.0266   -2.6058   -2.1446 H        1 ZINC000464752079    0.1200
36     H36     0.0540   -3.8484   -0.0191 H        1 ZINC000464752079    0.1200
37     H37     0.0491   -2.6288    2.1202 H        1 ZINC000464752079    0.1100
38     H38    -1.6598    1.4284    2.6593 H        1 ZINC000464752079    0.0900
39     H39    -2.1352   -0.2864    2.4297 H        1 ZINC000464752079    0.0800
40     H40    -1.0254    1.0620    4.9559 H        1 ZINC000464752079    0.0800
41     H41    -2.4184   -0.0619    4.8105 H        1 ZINC000464752079    0.0900
42     H42    -0.0171   -1.0358    5.5857 H        1 ZINC000464752079    0.0700
43     H43    -0.9944   -1.9553    4.4006 H        1 ZINC000464752079    0.0700
44     H44     1.6008   -2.2733    5.3525 H        1 ZINC000464752079    0.4000
45     H45     3.7432   -3.2505    3.7930 H        1 ZINC000464752079    0.0800
46     H46     4.2994   -1.8020    4.6653 H        1 ZINC000464752079    0.0800
47     H47     4.7739   -1.8867    6.9751 H        1 ZINC000464752079    0.1500
48     H48     3.0723   -6.5142    7.1540 H        1 ZINC000464752079    0.1500
49     H49     1.6952   -6.9207    4.0782 H        1 ZINC000464752079    0.1900
50     H50     5.2753   -4.5419   11.0795 H        1 ZINC000464752079    0.1400
51     H51     6.3857   -5.0013    9.7493 H        1 ZINC000464752079    0.0900
@<TRIPOS>BOND
1     1     2     1
2     1     31    1
3     1     32    1
4     1     33    1
5     2     7     ar
6     2     3     ar
7     3     4     ar
8     3     34    1
9     4     5     ar
10    4     35    1
11    5     6     ar
12    5     36    1
13    6     7     ar
14    6     37    1
15    7     8     1
16    8     9     1
17    8     13    1
18    8     10    1
19    10    11    1
20    10    38    1
21    10    39    1
22    11    12    1
23    11    40    1
24    11    41    1
25    12    13    1
26    12    42    1
27    12    43    1
28    13    14    am
29    14    15    2
30    14    16    am
31    16    17    1
32    16    44    1
33    17    18    1
34    17    45    1
35    17    46    1
36    18    23    ar
37    18    19    ar
38    19    20    ar
39    19    47    1
40    20    30    1
41    20    21    ar
42    21    22    ar
43    21    28    1
44    22    23    ar
45    22    48    1
46    23    24    1
47    24    25    1
48    25    26    1
49    25    27    1
50    25    49    1
51    28    29    1
52    29    30    1
53    29    50    1
54    29    51    1
@<TRIPOS>SUBSTRUCTURE
1   ZINC000464752079 1     RESIDUE    1   A     ZIN   1
@<TRIPOS>MOLECULE
ZINC000826435081
45	48	1	0	0
SMALL
USER_CHARGES
@<TRIPOS>ATOM
1      O1      0.0112    0.0728    0.0273 O.2      1 ZINC000826435081   -0.5700
2      C2     -0.0235    1.2390    0.3698 C.2      1 ZINC000826435081    0.7200
3      N3      1.1236    1.9091    0.5968 N.am     1 ZINC000826435081   -0.7300
4      C4      2.4123    1.2325    0.4310 C.3      1 ZINC000826435081    0.1500
5      C5      3.5460    2.2097    0.7481 C.3      1 ZINC000826435081    0.0400
6      H6      3.4414    3.1018    0.1305 H        1 ZINC000826435081    0.0800
7      C7      4.8934    1.5419    0.4586 C.3      1 ZINC000826435081    0.0300
8      O8      5.9487    2.4197    0.8622 O.3      1 ZINC000826435081   -0.3800
9      C9      5.8930    2.7844    2.2446 C.3      1 ZINC000826435081    0.0200
10     C10     4.5456    3.4523    2.5341 C.3      1 ZINC000826435081    0.0200
11     O11     3.4894    2.5757    2.1301 O.3      1 ZINC000826435081   -0.3700
12     N12    -1.2090    1.8631    0.5169 N.am     1 ZINC000826435081   -0.6400
13     C13    -2.4014    1.1681    0.2753 C.2      1 ZINC000826435081    0.3300
14     N14    -3.6134    1.6609    0.3770 N.2      1 ZINC000826435081   -0.2800
15     N15    -4.5262    0.6489    0.0531 N.pl3    1 ZINC000826435081   -0.3300
16     C16    -5.9202    0.7705    0.0412 C.ar     1 ZINC000826435081    0.2200
17     C17    -6.6992   -0.0745    0.8174 C.ar     1 ZINC000826435081   -0.1300
18     C18    -8.0758    0.0459    0.8053 C.ar     1 ZINC000826435081   -0.0500
19     C19    -8.6861    1.0075    0.0205 C.ar     1 ZINC000826435081   -0.1500
20     C20    -7.9228    1.8575   -0.7590 C.ar     1 ZINC000826435081    0.1500
21     F21    -8.5227    2.7957   -1.5238 F        1 ZINC000826435081   -0.1100
22     C22    -6.5328    1.7487   -0.7494 C.ar     1 ZINC000826435081   -0.0500
23     C23    -5.7082    2.6574   -1.5832 C.2      1 ZINC000826435081    0.2100
24     N24    -6.1377    3.6835   -2.2911 N.2      1 ZINC000826435081   -0.2800
25     N25    -5.1180    4.2161   -2.8719 N.pl3    1 ZINC000826435081   -0.2300
26     N26    -4.0565    3.5606   -2.5548 N.2      1 ZINC000826435081   -0.0500
27     N27    -4.3802    2.5986   -1.7590 N.2      1 ZINC000826435081   -0.2300
28     C28    -3.8193   -0.4711   -0.2473 C.2      1 ZINC000826435081    0.0700
29     C29    -2.5056   -0.1748   -0.1235 C.2      1 ZINC000826435081   -0.2400
30     H30     1.0959    2.8395    0.8700 H        1 ZINC000826435081    0.4000
31     H31     2.4658    0.3813    1.1098 H        1 ZINC000826435081    0.0800
32     H32     2.5101    0.8839   -0.5972 H        1 ZINC000826435081    0.0900
33     H33     4.9639    0.6075    1.0153 H        1 ZINC000826435081    0.0700
34     H34     4.9772    1.3383   -0.6089 H        1 ZINC000826435081    0.1100
35     H35     5.9970    1.8918    2.8614 H        1 ZINC000826435081    0.0600
36     H36     6.7006    3.4807    2.4705 H        1 ZINC000826435081    0.1100
37     H37     4.4618    3.6559    3.6016 H        1 ZINC000826435081    0.1100
38     H38     4.4751    4.3867    1.9774 H        1 ZINC000826435081    0.0600
39     H39    -1.2367    2.7934    0.7901 H        1 ZINC000826435081    0.4100
40     H40    -6.2292   -0.8280    1.4320 H        1 ZINC000826435081    0.1500
41     H41    -8.6782   -0.6145    1.4115 H        1 ZINC000826435081    0.1500
42     H42    -9.7626    1.0946    0.0161 H        1 ZINC000826435081    0.1500
43     H43    -5.1460    4.9897   -3.4564 H        1 ZINC000826435081    0.4800
44     H44    -4.2320   -1.4260   -0.5378 H        1 ZINC000826435081    0.1800
45     H45    -1.6824   -0.8528   -0.2937 H        1 ZINC000826435081    0.1800
@<TRIPOS>BOND
1     1     2     2
2     2     3     am
3     2     12    am
4     3     4     1
5     3     30    1
6     4     5     1
7     4     31    1
8     4     32    1
9     5     6     1
10    5     11    1
11    5     7     1
12    7     8     1
13    7     33    1
14    7     34    1
15    8     9     1
16    9     10    1
17    9     35    1
18    9     36    1
19    10    11    1
20    10    37    1
21    10    38    1
22    12    13    1
23    12    39    1
24    13    29    1
25    13    14    2
26    14    15    1
27    15    16    1
28    15    28    1
29    16    22    ar
30    16    17    ar
31    17    18    ar
32    17    40    1
33    18    19    ar
34    18    41    1
35    19    20    ar
36    19    42    1
37    20    21    1
38    20    22    ar
39    22    23    1
40    23    27    1
41    23    24    2
42    24    25    1
43    25    26    1
44    25    43    1
45    26    27    2
46    28    29    2
47    28    44    1
48    29    45    1
@<TRIPOS>SUBSTRUCTURE
1   ZINC000826435081 1     RESIDUE    1   A     ZIN   1
@<TRIPOS>MOLECULE
ZINC000458730620
48	49	1	0	0
SMALL
USER_CHARGES
@<TRIPOS>ATOM
1      C1      0.2725    1.4999   -0.0750 C.3      1 ZINC000458730620   -0.1600
2      C2      0.0021   -0.0041    0.0020 C.3      1 ZINC000458730620    0.2000
3      C3      0.6666   -0.5782    1.2549 C.3      1 ZINC000458730620   -0.1600
4      N4     -1.4428   -0.2379    0.0649 N.am     1 ZINC000458730620   -0.7400
5      C5     -2.1584    0.2409    1.1018 C.2      1 ZINC000458730620    0.7100
6      O6     -1.6048    0.8669    1.9851 O.2      1 ZINC000458730620   -0.5800
7      N7     -3.4876    0.0258    1.1597 N.am     1 ZINC000458730620   -0.7500
8      C8     -4.2654    0.5462    2.2868 C.3      1 ZINC000458730620    0.1300
9      C9     -5.7368    0.1657    2.1100 C.3      1 ZINC000458730620    0.1000
10     N10    -6.5146    0.6862    3.2371 N.am     1 ZINC000458730620   -1.1100
11     S11    -8.1664    0.7563    3.1410 S.o2     1 ZINC000458730620    2.7000
12     O12    -8.6194    1.2670    4.3873 O.2      1 ZINC000458730620   -0.9400
13     O13    -8.4702    1.3668    1.8943 O.2      1 ZINC000458730620   -0.9400
14     C14    -8.7538   -0.9017    3.0395 C.ar     1 ZINC000458730620   -0.7300
15     C15    -9.5296   -1.4232    4.0573 C.ar     1 ZINC000458730620    0.0400
16     C16    -9.9915   -2.7236    3.9787 C.ar     1 ZINC000458730620   -0.1800
17     C17    -9.6774   -3.5052    2.8800 C.ar     1 ZINC000458730620    0.1900
18     F18   -10.1294   -4.7761    2.8033 F        1 ZINC000458730620   -0.1200
19     C19    -8.9003   -2.9839    1.8597 C.ar     1 ZINC000458730620   -0.2100
20     C20    -8.4427   -1.6800    1.9370 C.ar     1 ZINC000458730620    0.2200
21     F21    -7.6843   -1.1700    0.9421 F        1 ZINC000458730620   -0.1100
22     C22     0.5761   -0.6897   -1.2395 C.3      1 ZINC000458730620   -0.1100
23     C23     0.0241   -2.1061   -1.4716 C.3      1 ZINC000458730620   -0.1400
24     C24    -0.0143   -1.7607   -2.9696 C.3      1 ZINC000458730620   -0.1400
25     C25    -0.1270   -0.2866   -2.5464 C.3      1 ZINC000458730620   -0.1400
26     H26     1.3479    1.6769   -0.0596 H        1 ZINC000458730620    0.0600
27     H27    -0.1480    1.8978   -0.9986 H        1 ZINC000458730620    0.0500
28     H28    -0.1898    1.9963    0.7781 H        1 ZINC000458730620    0.0800
29     H29     0.2577   -0.0897    2.1393 H        1 ZINC000458730620    0.0800
30     H30     0.4740   -1.6496    1.3098 H        1 ZINC000458730620    0.0500
31     H31     1.7417   -0.4042    1.2081 H        1 ZINC000458730620    0.0600
32     H32    -1.8844   -0.7372   -0.6397 H        1 ZINC000458730620    0.3900
33     H33    -3.9292   -0.4736    0.4551 H        1 ZINC000458730620    0.4000
34     H34    -3.8889    0.1190    3.2162 H        1 ZINC000458730620    0.0800
35     H35    -4.1726    1.6317    2.3220 H        1 ZINC000458730620    0.0800
36     H36    -6.1134    0.5929    1.1806 H        1 ZINC000458730620    0.0900
37     H37    -5.8297   -0.9197    2.0748 H        1 ZINC000458730620    0.0700
38     H38    -6.0622    0.9896    4.0396 H        1 ZINC000458730620    0.4300
39     H39    -9.7748   -0.8143    4.9149 H        1 ZINC000458730620    0.1700
40     H40   -10.5974   -3.1302    4.7749 H        1 ZINC000458730620    0.1600
41     H41    -8.6547   -3.5929    1.0023 H        1 ZINC000458730620    0.1600
42     H42     1.6631   -0.6293   -1.2919 H        1 ZINC000458730620    0.1100
43     H43     0.7323   -2.8968   -1.2239 H        1 ZINC000458730620    0.0700
44     H44    -0.9617   -2.2675   -1.0353 H        1 ZINC000458730620    0.0800
45     H45     0.9114   -1.9944   -3.4955 H        1 ZINC000458730620    0.0800
46     H46    -0.8999   -2.1368   -3.4819 H        1 ZINC000458730620    0.0700
47     H47    -1.1541    0.0495   -2.4039 H        1 ZINC000458730620    0.0800
48     H48     0.4592    0.3917   -3.1663 H        1 ZINC000458730620    0.0700
@<TRIPOS>BOND
1     1     2     1
2     1     26    1
3     1     27    1
4     1     28    1
5     2     3     1
6     2     4     1
7     2     22    1
8     3     29    1
9     3     30    1
10    3     31    1
11    4     5     am
12    4     32    1
13    5     6     2
14    5     7     am
15    7     8     1
16    7     33    1
17    8     9     1
18    8     34    1
19    8     35    1
20    9     10    1
21    9     36    1
22    9     37    1
23    10    11    am
24    10    38    1
25    11    12    2
26    11    13    2
27    11    14    1
28    14    20    ar
29    14    15    ar
30    15    16    ar
31    15    39    1
32    16    17    ar
33    16    40    1
34    17    18    1
35    17    19    ar
36    19    20    ar
37    19    41    1
38    20    21    1
39    22    25    1
40    22    23    1
41    22    42    1
42    23    24    1
43    23    43    1
44    23    44    1
45    24    25    1
46    24    45    1
47    24    46    1
48    25    47    1
49    25    48    1
@<TRIPOS>SUBSTRUCTURE
1   ZINC000458730620 1     RESIDUE    1   A     ZIN   1
@<TRIPOS>MOLECULE
ZINC000767361237
53	55	1	0	0
SMALL
USER_CHARGES
@<TRIPOS>ATOM
1      C1     -0.0184    1.5028    0.0103 C.3      1 ZINC000767361237   -0.1200
2      C2      0.0021   -0.0041    0.0020 C.ar     1 ZINC000767361237   -0.0900
3      C3      0.0057   -0.6887   -1.1989 C.ar     1 ZINC000767361237   -0.1200
4      C4      0.0245   -2.0709   -1.2065 C.ar     1 ZINC000767361237   -0.1100
5      C5      0.0400   -2.7685   -0.0132 C.ar     1 ZINC000767361237   -0.0800
6      C6      0.0600   -4.2753   -0.0215 C.3      1 ZINC000767361237   -0.0800
7      H7      0.0593   -4.6330   -1.0511 H        1 ZINC000767361237    0.0900
8      C8     -1.1785   -4.8057    0.7035 C.3      1 ZINC000767361237   -0.1500
9      C9      1.3197   -4.7726    0.6903 C.3      1 ZINC000767361237    0.1300
10     H10     1.3204   -4.4149    1.7200 H        1 ZINC000767361237    0.1400
11     O11     2.4764   -4.2772    0.0132 O.3      1 ZINC000767361237   -0.5200
12     C12     1.3396   -6.2795    0.6820 C.2      1 ZINC000767361237    0.4300
13     O13     2.2015   -6.8689    0.0740 O.2      1 ZINC000767361237   -0.5000
14     O14     0.3999   -6.9668    1.3501 O.3      1 ZINC000767361237   -0.3300
15     C15     0.4811   -8.4156    1.2982 C.3      1 ZINC000767361237    0.0100
16     C16    -0.6476   -9.0110    2.0998 C.2      1 ZINC000767361237    0.3700
17     O17    -1.4388   -8.2888    2.6573 O.2      1 ZINC000767361237   -0.4200
18     C18    -0.7889  -10.5076    2.2057 C.3      1 ZINC000767361237   -0.1800
19     C19    -2.0062  -10.8451    3.0690 C.3      1 ZINC000767361237    0.1200
20     N20    -2.1436  -12.3000    3.1719 N.am     1 ZINC000767361237   -0.5800
21     C21    -2.8513  -13.0600    2.3168 C.2      1 ZINC000767361237    0.5700
22     O22    -3.4680  -12.6551    1.3521 O.2      1 ZINC000767361237   -0.4600
23     C23    -2.7520  -14.4706    2.7474 C.ar     1 ZINC000767361237   -0.1400
24     C24    -3.2600  -15.6667    2.2675 C.ar     1 ZINC000767361237   -0.0400
25     C25    -2.9685  -16.8511    2.9269 C.ar     1 ZINC000767361237   -0.0900
26     C26    -2.1754  -16.8459    4.0585 C.ar     1 ZINC000767361237   -0.0900
27     C27    -1.6601  -15.6564    4.5503 C.ar     1 ZINC000767361237   -0.0400
28     C28    -1.9429  -14.4653    3.9019 C.ar     1 ZINC000767361237   -0.1400
29     C29    -1.5740  -13.0524    4.1306 C.2      1 ZINC000767361237    0.5700
30     O30    -0.8751  -12.6395    5.0340 O.2      1 ZINC000767361237   -0.4600
31     C31     0.0378   -2.0839    1.1877 C.ar     1 ZINC000767361237   -0.1100
32     C32     0.0229   -0.7016    1.1953 C.ar     1 ZINC000767361237   -0.1200
33     H33     1.0042    1.8801    0.0026 H        1 ZINC000767361237    0.0700
34     H34    -0.5455    1.8639   -0.8728 H        1 ZINC000767361237    0.0700
35     H35    -0.5286    1.8543    0.9071 H        1 ZINC000767361237    0.0700
36     H36    -0.0064   -0.1436   -2.1312 H        1 ZINC000767361237    0.1200
37     H37     0.0266   -2.6057   -2.1448 H        1 ZINC000767361237    0.1200
38     H38    -1.1641   -5.8956    0.6975 H        1 ZINC000767361237    0.0800
39     H39    -1.1778   -4.4480    1.7332 H        1 ZINC000767361237    0.0700
40     H40    -2.0760   -4.4514    0.1964 H        1 ZINC000767361237    0.0600
41     H41     2.5414   -4.5566   -0.9103 H        1 ZINC000767361237    0.3900
42     H42     0.4055   -8.7469    0.2625 H        1 ZINC000767361237    0.1100
43     H43     1.4341   -8.7412    1.7152 H        1 ZINC000767361237    0.1100
44     H44    -0.9208  -10.9314    1.2102 H        1 ZINC000767361237    0.1100
45     H45     0.1079  -10.9258    2.6628 H        1 ZINC000767361237    0.1100
46     H46    -1.8744  -10.4213    4.0645 H        1 ZINC000767361237    0.1100
47     H47    -2.9030  -10.4269    2.6119 H        1 ZINC000767361237    0.1100
48     H48    -3.8806  -15.6766    1.3837 H        1 ZINC000767361237    0.1400
49     H49    -3.3643  -17.7840    2.5537 H        1 ZINC000767361237    0.1400
50     H50    -1.9557  -17.7749    4.5636 H        1 ZINC000767361237    0.1400
51     H51    -1.0405  -15.6584    5.4349 H        1 ZINC000767361237    0.1400
52     H52     0.0503   -2.6289    2.1200 H        1 ZINC000767361237    0.1200
53     H53     0.0211   -0.1667    2.1335 H        1 ZINC000767361237    0.1200
@<TRIPOS>BOND
1     1     2     1
2     1     33    1
3     1     34    1
4     1     35    1
5     2     32    ar
6     2     3     ar
7     3     4     ar
8     3     36    1
9     4     5     ar
10    4     37    1
11    5     6     1
12    5     31    ar
13    6     7     1
14    6     8     1
15    6     9     1
16    8     38    1
17    8     39    1
18    8     40    1
19    9     10    1
20    9     11    1
21    9     12    1
22    11    41    1
23    12    13    2
24    12    14    1
25    14    15    1
26    15    16    1
27    15    42    1
28    15    43    1
29    16    17    2
30    16    18    1
31    18    19    1
32    18    44    1
33    18    45    1
34    19    20    1
35    19    46    1
36    19    47    1
37    20    29    am
38    20    21    am
39    21    22    2
40    21    23    1
41    23    28    ar
42    23    24    ar
43    24    25    ar
44    24    48    1
45    25    26    ar
46    25    49    1
47    26    27    ar
48    26    50    1
49    27    28    ar
50    27    51    1
51    28    29    1
52    29    30    2
53    31    32    ar
54    31    52    1
55    32    53    1
@<TRIPOS>SUBSTRUCTURE
1   ZINC000767361237 1     RESIDUE    1   A     ZIN   1
@<TRIPOS>MOLECULE
ZINC000110375116
55	56	1	0	0
SMALL
USER_CHARGES
@<TRIPOS>ATOM
1      C1     -0.0187    1.5258    0.0104 C.3      1 ZINC000110375116   -0.1700
2      C2      0.0021   -0.0041    0.0020 C.3      1 ZINC000110375116    0.1000
3      N3     -1.3723   -0.5112    0.0124 N.am     1 ZINC000110375116   -0.6200
4      C4     -2.0716   -0.7579   -1.2510 C.3      1 ZINC000110375116    0.1100
5      C5     -1.8159   -2.1971   -1.7029 C.3      1 ZINC000110375116   -0.1700
6      C6     -1.9934   -0.7507    1.1843 C.2      1 ZINC000110375116    0.5100
7      O7     -3.1312   -1.1705    1.1929 O.2      1 ZINC000110375116   -0.5300
8      C8     -1.2740   -0.4969    2.4840 C.3      1 ZINC000110375116   -0.1400
9      C9     -2.1957   -0.8473    3.6539 C.3      1 ZINC000110375116   -0.0900
10     C10    -1.4653   -0.5896    4.9734 C.3      1 ZINC000110375116   -0.1400
11     C11    -2.3731   -0.9347    6.1257 C.2      1 ZINC000110375116    0.5200
12     O12    -3.4939   -1.3462    5.9126 O.2      1 ZINC000110375116   -0.5300
13     N13    -1.9395   -0.7860    7.3932 N.am     1 ZINC000110375116   -0.6200
14     C14    -0.5861   -0.2826    7.6665 C.3      1 ZINC000110375116    0.0900
15     C15    -0.6946    0.9420    8.5835 C.3      1 ZINC000110375116    0.1000
16     N16    -1.5669    0.6041    9.7169 N.am     1 ZINC000110375116   -1.0000
17     S17    -1.0345    0.7878   11.2742 S.o2     1 ZINC000110375116    2.7000
18     O18    -1.8140   -0.0933   12.0713 O.2      1 ZINC000110375116   -0.9400
19     O19     0.3846    0.7383   11.2216 O.2      1 ZINC000110375116   -0.9500
20     C20    -1.4569    2.4218   11.7805 C.ar     1 ZINC000110375116   -0.7400
21     C21    -0.5760    3.4714   11.5705 C.ar     1 ZINC000110375116    0.0200
22     C22    -0.9508    4.7406   11.9849 C.ar     1 ZINC000110375116   -0.1900
23     C23    -2.1812    4.9157   12.5890 C.ar     1 ZINC000110375116    0.1500
24     N24    -2.9941    3.8936   12.7727 N.ar     1 ZINC000110375116   -0.4900
25     C25    -2.6732    2.6743   12.3868 C.ar     1 ZINC000110375116    0.2000
26     C26    -2.9203    0.1007    9.4436 C.3      1 ZINC000110375116    0.1000
27     C27    -2.8138   -1.1186    8.5267 C.3      1 ZINC000110375116    0.1000
28     H28     1.0039    1.9031    0.0027 H        1 ZINC000110375116    0.0700
29     H29    -0.5459    1.8868   -0.8726 H        1 ZINC000110375116    0.0600
30     H30    -0.5289    1.8773    0.9072 H        1 ZINC000110375116    0.0600
31     H31     0.5123   -0.3556   -0.8948 H        1 ZINC000110375116    0.0800
32     H32     0.5293   -0.3651    0.8851 H        1 ZINC000110375116    0.0800
33     H33    -3.1417   -0.6062   -1.1097 H        1 ZINC000110375116    0.0800
34     H34    -1.7041   -0.0678   -2.0105 H        1 ZINC000110375116    0.0800
35     H35    -2.3362   -2.3807   -2.6429 H        1 ZINC000110375116    0.0700
36     H36    -0.7458   -2.3488   -1.8443 H        1 ZINC000110375116    0.0500
37     H37    -2.1835   -2.8871   -0.9434 H        1 ZINC000110375116    0.0600
38     H38    -0.3776   -1.1152    2.5299 H        1 ZINC000110375116    0.0900
39     H39    -0.9936    0.5547    2.5447 H        1 ZINC000110375116    0.0900
40     H40    -3.0921   -0.2289    3.6080 H        1 ZINC000110375116    0.0800
41     H41    -2.4761   -1.8988    3.5932 H        1 ZINC000110375116    0.0800
42     H42    -0.5689   -1.2079    5.0193 H        1 ZINC000110375116    0.1000
43     H43    -1.1849    0.4620    5.0341 H        1 ZINC000110375116    0.1000
44     H44    -0.0000   -1.0581    8.1596 H        1 ZINC000110375116    0.0800
45     H45    -0.1060    0.0027    6.7304 H        1 ZINC000110375116    0.1000
46     H46     0.2951    1.2123    8.9514 H        1 ZINC000110375116    0.1100
47     H47    -1.1222    1.7774    8.0291 H        1 ZINC000110375116    0.0800
48     H48     0.3796    3.3046   11.0958 H        1 ZINC000110375116    0.1500
49     H49    -0.2894    5.5815   11.8376 H        1 ZINC000110375116    0.1500
50     H50    -2.4804    5.9009   12.9150 H        1 ZINC000110375116    0.1700
51     H51    -3.3649    1.8620   12.5541 H        1 ZINC000110375116    0.1700
52     H52    -3.4005   -0.1846   10.3797 H        1 ZINC000110375116    0.1100
53     H53    -3.5064    0.8762    8.9505 H        1 ZINC000110375116    0.0800
54     H54    -3.8042   -1.3878    8.1595 H        1 ZINC000110375116    0.1100
55     H55    -2.3857   -1.9553    9.0788 H        1 ZINC000110375116    0.0800
@<TRIPOS>BOND
1     1     2     1
2     1     28    1
3     1     29    1
4     1     30    1
5     2     3     1
6     2     31    1
7     2     32    1
8     3     4     1
9     3     6     am
10    4     5     1
11    4     33    1
12    4     34    1
13    5     35    1
14    5     36    1
15    5     37    1
16    6     7     2
17    6     8     1
18    8     9     1
19    8     38    1
20    8     39    1
21    9     10    1
22    9     40    1
23    9     41    1
24    10    11    1
25    10    42    1
26    10    43    1
27    11    12    2
28    11    13    am
29    13    27    1
30    13    14    1
31    14    15    1
32    14    44    1
33    14    45    1
34    15    16    1
35    15    46    1
36    15    47    1
37    16    17    am
38    16    26    1
39    17    18    2
40    17    19    2
41    17    20    1
42    20    25    ar
43    20    21    ar
44    21    22    ar
45    21    48    1
46    22    23    ar
47    22    49    1
48    23    24    ar
49    23    50    1
50    24    25    ar
51    25    51    1
52    26    27    1
53    26    52    1
54    26    53    1
55    27    54    1
56    27    55    1
@<TRIPOS>SUBSTRUCTURE
1   ZINC000110375116 1     RESIDUE    1   A     ZIN   1
@<TRIPOS>MOLECULE
ZINC001060620810
49	52	1	0	0
SMALL
USER_CHARGES
@<TRIPOS>ATOM
1      O1      2.0658   -0.0948    1.2538 O.2      1 ZINC001060620810   -0.5400
2      C2      2.3312    0.9256    0.6543 C.2      1 ZINC001060620810    0.5500
3      N3      1.3617    1.5929   -0.0024 N.am     1 ZINC001060620810   -0.7200
4      C4     -0.0127    1.0858    0.0080 C.3      1 ZINC001060620810    0.1400
5      C5     -0.7288    1.5792    1.2668 C.3      1 ZINC001060620810   -0.1300
6      C6     -2.1642    1.0497    1.2777 C.3      1 ZINC001060620810   -0.1300
7      C7     -2.9042    1.5565    0.0381 C.3      1 ZINC001060620810    0.1600
8      N8     -2.9241    3.0213    0.0462 N.pl3    1 ZINC001060620810   -0.6900
9      C9     -3.9096    3.6969    0.7474 C.ar     1 ZINC001060620810    0.5600
10     N10    -4.8291    3.0023    1.4005 N.ar     1 ZINC001060620810   -0.5400
11     C11    -5.7815    3.6154    2.0841 C.ar     1 ZINC001060620810    0.1700
12     C12    -5.8150    5.0027    2.1022 C.ar     1 ZINC001060620810   -0.0700
13     F13    -6.7761    5.6615    2.7860 F        1 ZINC001060620810   -0.1300
14     C14    -4.8389    5.6981    1.4025 C.ar     1 ZINC001060620810    0.1800
15     N15    -3.9123    5.0214    0.7438 N.ar     1 ZINC001060620810   -0.5500
16     C16    -2.1881    1.0631   -1.2207 C.3      1 ZINC001060620810   -0.1200
17     C17    -0.7527    1.5927   -1.2315 C.3      1 ZINC001060620810   -0.1300
18     C18     3.7450    1.4472    0.6436 C.3      1 ZINC001060620810   -0.1500
19     C19     4.7591    0.6058   -0.1202 C.3      1 ZINC001060620810   -0.1500
20     C20     4.7686    0.6091    1.3934 C.3      1 ZINC001060620810   -0.1100
21     H21     4.4125   -0.3026    1.8729 H        1 ZINC001060620810    0.1100
22     C22     5.9543    1.2697    2.0896 C.3      1 ZINC001060620810   -0.0900
23     C23     5.6794    2.7559    2.3196 C.3      1 ZINC001060620810   -0.1200
24     C24     5.2872    3.3930    0.9816 C.3      1 ZINC001060620810   -0.1200
25     C25     3.8613    2.9634    0.6366 C.3      1 ZINC001060620810   -0.0800
26     H26     1.5740    2.4089   -0.4819 H        1 ZINC001060620810    0.4000
27     H27     0.0021   -0.0041    0.0020 H        1 ZINC001060620810    0.0900
28     H28    -0.2017    1.2182    2.1499 H        1 ZINC001060620810    0.0700
29     H29    -0.7436    2.6691    1.2728 H        1 ZINC001060620810    0.0600
30     H30    -2.6744    1.4012    2.1745 H        1 ZINC001060620810    0.0700
31     H31    -2.1494   -0.0402    1.2717 H        1 ZINC001060620810    0.0800
32     H32    -3.9268    1.1792    0.0459 H        1 ZINC001060620810    0.1000
33     H33    -2.2472    3.5182   -0.4394 H        1 ZINC001060620810    0.4100
34     H34    -6.5262    3.0435    2.6176 H        1 ZINC001060620810    0.1800
35     H35    -4.8359    6.7780    1.3954 H        1 ZINC001060620810    0.1800
36     H36    -2.7153    1.4241   -2.1037 H        1 ZINC001060620810    0.0800
37     H37    -2.1733   -0.0268   -1.2266 H        1 ZINC001060620810    0.0900
38     H38    -0.7675    2.6825   -1.2255 H        1 ZINC001060620810    0.0700
39     H39    -0.2425    1.2411   -2.1283 H        1 ZINC001060620810    0.0800
40     H40     4.3965   -0.2964   -0.6127 H        1 ZINC001060620810    0.1000
41     H41     5.5655    1.1306   -0.6325 H        1 ZINC001060620810    0.1100
42     H42     6.8314    1.1591    1.4520 H        1 ZINC001060620810    0.0700
43     H43     6.1405    0.7842    3.0476 H        1 ZINC001060620810    0.0700
44     H44     6.5771    3.2387    2.7057 H        1 ZINC001060620810    0.0700
45     H45     4.8632    2.8710    3.0329 H        1 ZINC001060620810    0.0700
46     H46     5.9699    3.0556    0.2016 H        1 ZINC001060620810    0.0700
47     H47     5.3320    4.4788    1.0662 H        1 ZINC001060620810    0.0700
48     H48     3.6018    3.3395   -0.3531 H        1 ZINC001060620810    0.0700
49     H49     3.1728    3.3804    1.3716 H        1 ZINC001060620810    0.0700
@<TRIPOS>BOND
1     1     2     2
2     2     3     am
3     2     18    1
4     3     4     1
5     3     26    1
6     4     17    1
7     4     5     1
8     4     27    1
9     5     6     1
10    5     28    1
11    5     29    1
12    6     7     1
13    6     30    1
14    6     31    1
15    7     8     1
16    7     16    1
17    7     32    1
18    8     9     1
19    8     33    1
20    9     15    ar
21    9     10    ar
22    10    11    ar
23    11    12    ar
24    11    34    1
25    12    13    1
26    12    14    ar
27    14    15    ar
28    14    35    1
29    16    17    1
30    16    36    1
31    16    37    1
32    17    38    1
33    17    39    1
34    18    20    1
35    18    25    1
36    18    19    1
37    19    20    1
38    19    40    1
39    19    41    1
40    20    21    1
41    20    22    1
42    22    23    1
43    22    42    1
44    22    43    1
45    23    24    1
46    23    44    1
47    23    45    1
48    24    25    1
49    24    46    1
50    24    47    1
51    25    48    1
52    25    49    1
@<TRIPOS>SUBSTRUCTURE
1   ZINC001060620810 1     RESIDUE    1   A     ZIN   1
@<TRIPOS>MOLECULE
ZINC000425987417
51	52	1	0	0
SMALL
USER_CHARGES
@<TRIPOS>ATOM
1      C1     -0.2971    1.5897    0.5470 C.3      1 ZINC000425987417   -0.1500
2      C2     -0.0457    0.1326    0.1536 C.3      1 ZINC000425987417    0.0400
3      N3      0.8577   -0.4895    1.1307 N.3      1 ZINC000425987417   -0.5300
4      C4      0.8270   -1.9539    1.0182 C.3      1 ZINC000425987417    0.0400
5      C5     -0.5562   -2.4676    1.4227 C.3      1 ZINC000425987417    0.1400
6      N6     -0.5868   -3.9280    1.3104 N.am     1 ZINC000425987417   -0.7500
7      C7     -1.7115   -4.6041    1.6178 C.2      1 ZINC000425987417    0.7200
8      O8     -2.6693   -4.0133    2.0780 O.2      1 ZINC000425987417   -0.5800
9      N9     -1.7744   -5.9350    1.4149 N.am     1 ZINC000425987417   -0.6200
10     C10    -3.0224   -6.6847    1.6341 C.3      1 ZINC000425987417    0.1300
11     C11    -2.7859   -7.6651    2.7819 C.3      1 ZINC000425987417   -0.1000
12     C12    -1.4957   -8.4171    2.5873 C.ar     1 ZINC000425987417   -0.0600
13     C13    -1.3368   -9.6130    3.2763 C.ar     1 ZINC000425987417   -0.1200
14     C14    -0.1753  -10.3466    3.1503 C.ar     1 ZINC000425987417   -0.1100
15     C15     0.8415   -9.8893    2.3332 C.ar     1 ZINC000425987417   -0.1200
16     C16     0.6850   -8.7034    1.6450 C.ar     1 ZINC000425987417   -0.1100
17     C17    -0.4854   -7.9674    1.7665 C.ar     1 ZINC000425987417   -0.0900
18     C18    -0.6038   -6.6935    0.9610 C.3      1 ZINC000425987417    0.1800
19     H19     0.2944   -6.0918    1.0998 H        1 ZINC000425987417    0.0900
20     C20    -0.7600   -7.0409   -0.5209 C.3      1 ZINC000425987417   -0.1600
21     C21     2.2269    0.0214    0.9816 C.3      1 ZINC000425987417    0.0500
22     C22     3.0378   -0.3199    2.2333 C.3      1 ZINC000425987417   -0.1600
23     C23     4.4141    0.3426    2.1458 C.3      1 ZINC000425987417    0.4500
24     F24     4.2589    1.7300    2.0546 F        1 ZINC000425987417   -0.1800
25     F25     5.1556    0.0306    3.2903 F        1 ZINC000425987417   -0.1800
26     F26     5.0864   -0.1268    1.0123 F        1 ZINC000425987417   -0.1900
27     H27     0.6427    2.1411    0.5182 H        1 ZINC000425987417    0.0500
28     H28    -1.0031    2.0381   -0.1520 H        1 ZINC000425987417    0.0600
29     H29    -0.7100    1.6278    1.5550 H        1 ZINC000425987417    0.0700
30     H30    -0.9920   -0.4080    0.1381 H        1 ZINC000425987417    0.0800
31     H31     0.4095    0.0969   -0.8362 H        1 ZINC000425987417    0.0400
32     H32     1.0353   -2.2435   -0.0118 H        1 ZINC000425987417    0.0500
33     H33     1.5815   -2.3847    1.6764 H        1 ZINC000425987417    0.0800
34     H34    -0.7644   -2.1779    2.4526 H        1 ZINC000425987417    0.0800
35     H35    -1.3106   -2.0367    0.7644 H        1 ZINC000425987417    0.0700
36     H36     0.2024   -4.4083    1.0149 H        1 ZINC000425987417    0.3900
37     H37    -3.8251   -5.9957    1.8971 H        1 ZINC000425987417    0.1000
38     H38    -3.2872   -7.2325    0.7298 H        1 ZINC000425987417    0.0700
39     H39    -2.7414   -7.1137    3.7210 H        1 ZINC000425987417    0.0800
40     H40    -3.6120   -8.3751    2.8228 H        1 ZINC000425987417    0.0900
41     H41    -2.1293   -9.9713    3.9165 H        1 ZINC000425987417    0.1200
42     H42    -0.0606  -11.2756    3.6890 H        1 ZINC000425987417    0.1200
43     H43     1.7546  -10.4574    2.2341 H        1 ZINC000425987417    0.1200
44     H44     1.4794   -8.3453    1.0070 H        1 ZINC000425987417    0.1200
45     H45    -1.6572   -7.6439   -0.6601 H        1 ZINC000425987417    0.0700
46     H46    -0.8454   -6.1228   -1.1022 H        1 ZINC000425987417    0.0600
47     H47     0.1114   -7.6034   -0.8560 H        1 ZINC000425987417    0.0700
48     H48     2.6933   -0.4381    0.1101 H        1 ZINC000425987417    0.0500
49     H49     2.1988    1.1031    0.8506 H        1 ZINC000425987417    0.0900
50     H50     2.5140    0.0459    3.1165 H        1 ZINC000425987417    0.1200
51     H51     3.1587   -1.4008    2.3043 H        1 ZINC000425987417    0.1100
@<TRIPOS>BOND
1     1     2     1
2     1     27    1
3     1     28    1
4     1     29    1
5     2     3     1
6     2     30    1
7     2     31    1
8     3     4     1
9     3     21    1
10    4     5     1
11    4     32    1
12    4     33    1
13    5     6     1
14    5     34    1
15    5     35    1
16    6     7     am
17    6     36    1
18    7     8     2
19    7     9     am
20    9     18    1
21    9     10    1
22    10    11    1
23    10    37    1
24    10    38    1
25    11    12    1
26    11    39    1
27    11    40    1
28    12    17    ar
29    12    13    ar
30    13    14    ar
31    13    41    1
32    14    15    ar
33    14    42    1
34    15    16    ar
35    15    43    1
36    16    17    ar
37    16    44    1
38    17    18    1
39    18    19    1
40    18    20    1
41    20    45    1
42    20    46    1
43    20    47    1
44    21    22    1
45    21    48    1
46    21    49    1
47    22    23    1
48    22    50    1
49    22    51    1
50    23    24    1
51    23    25    1
52    23    26    1
@<TRIPOS>SUBSTRUCTURE
1   ZINC000425987417 1     RESIDUE    1   A     ZIN   1
@<TRIPOS>MOLECULE
ZINC000546115054
55	56	1	0	0
SMALL
USER_CHARGES
@<TRIPOS>ATOM
1      C1     -0.0187    1.5258    0.0104 C.3      1 ZINC000546115054   -0.1500
2      C2      0.0021   -0.0041    0.0020 C.3      1 ZINC000546115054    0.0600
3      O3     -1.3386   -0.4987    0.0122 O.3      1 ZINC000546115054   -0.3700
4      C4     -1.4321   -1.9246    0.0054 C.3      1 ZINC000546115054    0.0500
5      H5     -0.5632   -2.3490    0.5085 H        1 ZINC000546115054    0.0700
6      C6     -1.4825   -2.4272   -1.4398 C.3      1 ZINC000546115054    0.0400
7      O7     -1.6342   -3.8481   -1.4436 O.3      1 ZINC000546115054   -0.3700
8      C8     -2.8339   -4.3085   -0.8184 C.3      1 ZINC000546115054    0.0600
9      C9     -2.8378   -3.8815    0.6517 C.3      1 ZINC000546115054   -0.1600
10     C10    -2.7078   -2.3574    0.7344 C.3      1 ZINC000546115054    0.1700
11     H11    -3.5723   -1.8915    0.2614 H        1 ZINC000546115054    0.1000
12     N12    -2.6372   -1.9471    2.1390 N.am     1 ZINC000546115054   -0.7300
13     C13    -3.7705   -1.7584    2.8437 C.2      1 ZINC000546115054    0.7200
14     O14    -4.8514   -1.9288    2.3137 O.2      1 ZINC000546115054   -0.5900
15     N15    -3.7055   -1.3809    4.1359 N.am     1 ZINC000546115054   -0.7200
16     C16    -4.9374   -1.1758    4.9019 C.3      1 ZINC000546115054    0.1600
17     H17    -5.6900   -1.8951    4.5789 H        1 ZINC000546115054    0.1200
18     C18    -4.6502   -1.3725    6.3918 C.3      1 ZINC000546115054   -0.1000
19     C19    -4.2585   -2.8058    6.6429 C.ar     1 ZINC000546115054   -0.0800
20     C20    -5.2283   -3.7461    6.9369 C.ar     1 ZINC000546115054   -0.1100
21     C21    -4.8689   -5.0608    7.1672 C.ar     1 ZINC000546115054   -0.1200
22     C22    -3.5399   -5.4355    7.1033 C.ar     1 ZINC000546115054   -0.1200
23     C23    -2.5702   -4.4955    6.8085 C.ar     1 ZINC000546115054   -0.1200
24     C24    -2.9299   -3.1816    6.5738 C.ar     1 ZINC000546115054   -0.1100
25     C25    -5.4468    0.2232    4.6689 C.2      1 ZINC000546115054    0.5000
26     O26    -4.8406    0.9749    3.9352 O.2      1 ZINC000546115054   -0.5200
27     N27    -6.5761    0.6390    5.2758 N.am     1 ZINC000546115054   -0.6200
28     C28    -7.0713    1.9990    5.0493 C.3      1 ZINC000546115054    0.0800
29     C29    -7.3083   -0.2691    6.1620 C.3      1 ZINC000546115054    0.0700
30     H30     1.0039    1.9031    0.0027 H        1 ZINC000546115054    0.0700
31     H31    -0.5459    1.8868   -0.8726 H        1 ZINC000546115054    0.0600
32     H32    -0.5289    1.8773    0.9072 H        1 ZINC000546115054    0.0600
33     H33     0.5123   -0.3556   -0.8948 H        1 ZINC000546115054    0.0500
34     H34     0.5293   -0.3651    0.8851 H        1 ZINC000546115054    0.0500
35     H35    -2.3276   -1.9700   -1.9544 H        1 ZINC000546115054    0.0600
36     H36    -0.5575   -2.1590   -1.9504 H        1 ZINC000546115054    0.1000
37     H37    -3.6968   -3.8759   -1.3249 H        1 ZINC000546115054    0.0600
38     H38    -2.8826   -5.3955   -0.8814 H        1 ZINC000546115054    0.1000
39     H39    -3.7718   -4.1933    1.1191 H        1 ZINC000546115054    0.0900
40     H40    -1.9980   -4.3463    1.1682 H        1 ZINC000546115054    0.0800
41     H41    -1.7749   -1.8111    2.5618 H        1 ZINC000546115054    0.3900
42     H42    -2.8432   -1.2450    4.5587 H        1 ZINC000546115054    0.4000
43     H43    -3.8355   -0.7148    6.6946 H        1 ZINC000546115054    0.0900
44     H44    -5.5436   -1.1336    6.9686 H        1 ZINC000546115054    0.1100
45     H45    -6.2666   -3.4533    6.9868 H        1 ZINC000546115054    0.1200
46     H46    -5.6265   -5.7953    7.3976 H        1 ZINC000546115054    0.1200
47     H47    -3.2591   -6.4626    7.2840 H        1 ZINC000546115054    0.1200
48     H48    -1.5318   -4.7882    6.7588 H        1 ZINC000546115054    0.1200
49     H49    -2.1723   -2.4471    6.3435 H        1 ZINC000546115054    0.1200
50     H50    -7.7468    2.0019    4.1938 H        1 ZINC000546115054    0.0600
51     H51    -7.6051    2.3435    5.9350 H        1 ZINC000546115054    0.0700
52     H52    -6.2304    2.6634    4.8505 H        1 ZINC000546115054    0.0800
53     H53    -6.9373   -0.1600    7.1811 H        1 ZINC000546115054    0.0600
54     H54    -8.3705   -0.0260    6.1341 H        1 ZINC000546115054    0.0800
55     H55    -7.1621   -1.2970    5.8303 H        1 ZINC000546115054    0.0700
@<TRIPOS>BOND
1     1     2     1
2     1     30    1
3     1     31    1
4     1     32    1
5     2     3     1
6     2     33    1
7     2     34    1
8     3     4     1
9     4     5     1
10    4     10    1
11    4     6     1
12    6     7     1
13    6     35    1
14    6     36    1
15    7     8     1
16    8     9     1
17    8     37    1
18    8     38    1
19    9     10    1
20    9     39    1
21    9     40    1
22    10    11    1
23    10    12    1
24    12    13    am
25    12    41    1
26    13    14    2
27    13    15    am
28    15    16    1
29    15    42    1
30    16    17    1
31    16    18    1
32    16    25    1
33    18    19    1
34    18    43    1
35    18    44    1
36    19    24    ar
37    19    20    ar
38    20    21    ar
39    20    45    1
40    21    22    ar
41    21    46    1
42    22    23    ar
43    22    47    1
44    23    24    ar
45    23    48    1
46    24    49    1
47    25    26    2
48    25    27    am
49    27    28    1
50    27    29    1
51    28    50    1
52    28    51    1
53    28    52    1
54    29    53    1
55    29    54    1
56    29    55    1
@<TRIPOS>SUBSTRUCTURE
1   ZINC000546115054 1     RESIDUE    1   A     ZIN   1
@<TRIPOS>MOLECULE
ZINC001284642199
59	60	1	0	0
SMALL
USER_CHARGES
@<TRIPOS>ATOM
1      C1     -5.0805   -3.2697    6.4944 C.3      1 ZINC001284642199   -0.1100
2      C2     -3.9081   -2.4183    6.9086 C.ar     1 ZINC001284642199   -0.1900
3      C3     -2.7944   -2.9866    7.5067 C.ar     1 ZINC001284642199    0.1500
4      N4     -1.7836   -2.2075    7.8566 N.ar     1 ZINC001284642199   -0.4900
5      C5     -1.8275   -0.9077    7.6427 C.ar     1 ZINC001284642199    0.3100
6      C6     -0.6550   -0.0563    8.0569 C.3      1 ZINC001284642199    0.1300
7      N7      0.3010    0.0346    6.9453 N.3      1 ZINC001284642199   -0.6800
8      C8      1.4597    0.8590    7.3136 C.3      1 ZINC001284642199    0.0500
9      C9      2.4308    0.9302    6.1334 C.3      1 ZINC001284642199    0.1600
10     H10     2.8347   -0.0626    5.9349 H        1 ZINC001284642199    0.1000
11     N11     1.7223    1.4155    4.9466 N.am     1 ZINC001284642199   -0.7200
12     C12     2.1754    1.1028    3.7164 C.2      1 ZINC001284642199    0.5200
13     O13     3.1697    0.4196    3.5919 O.2      1 ZINC001284642199   -0.5300
14     C14     1.4465    1.6020    2.4955 C.3      1 ZINC001284642199   -0.1100
15     H15     1.4318    2.6919    2.5015 H        1 ZINC001284642199    0.0900
16     C16     2.1627    1.1086    1.2367 C.3      1 ZINC001284642199   -0.1000
17     C17     1.4227    1.6154   -0.0028 C.3      1 ZINC001284642199   -0.1100
18     C18    -0.0127    1.0858    0.0080 C.3      1 ZINC001284642199   -0.0900
19     H19     0.0021   -0.0041    0.0020 H        1 ZINC001284642199    0.0700
20     C20    -0.7527    1.5927   -1.2315 C.3      1 ZINC001284642199   -0.1500
21     C21    -0.7288    1.5792    1.2668 C.3      1 ZINC001284642199   -0.1100
22     C22     0.0111    1.0724    2.5063 C.3      1 ZINC001284642199   -0.1100
23     C23     3.5750    1.8880    6.4715 C.3      1 ZINC001284642199   -0.0800
24     C24     3.0082    3.2815    6.7502 C.3      1 ZINC001284642199   -0.1400
25     C25     4.3150    1.3811    7.7110 C.3      1 ZINC001284642199   -0.1400
26     C26     4.5461    1.9591    5.2913 C.3      1 ZINC001284642199   -0.1300
27     N27    -2.8716   -0.3320    7.0811 N.ar     1 ZINC001284642199   -0.5100
28     C28    -3.9173   -1.0481    6.7002 C.ar     1 ZINC001284642199    0.1500
29     H29    -5.7897   -3.3375    7.3194 H        1 ZINC001284642199    0.0800
30     H30    -5.5697   -2.8191    5.6309 H        1 ZINC001284642199    0.0700
31     H31    -4.7302   -4.2683    6.2335 H        1 ZINC001284642199    0.0700
32     H32    -2.7523   -4.0509    7.6851 H        1 ZINC001284642199    0.1700
33     H33    -0.1661   -0.5067    8.9207 H        1 ZINC001284642199    0.1000
34     H34    -1.0054    0.9424    8.3174 H        1 ZINC001284642199    0.0600
35     H35    -0.1452    0.3894    6.1127 H        1 ZINC001284642199    0.3400
36     H36     1.9633    0.4150    8.1723 H        1 ZINC001284642199    0.0900
37     H37     1.1241    1.8641    7.5690 H        1 ZINC001284642199    0.0400
38     H38     0.9270    1.9619    5.0461 H        1 ZINC001284642199    0.3900
39     H39     2.1775    0.0187    1.2307 H        1 ZINC001284642199    0.0700
40     H40     3.1853    1.4858    1.2289 H        1 ZINC001284642199    0.0700
41     H41     1.9329    1.2639   -0.8996 H        1 ZINC001284642199    0.0700
42     H42     1.4079    2.7053    0.0031 H        1 ZINC001284642199    0.0600
43     H43    -0.2425    1.2411   -2.1283 H        1 ZINC001284642199    0.0500
44     H44    -1.7753    1.2154   -1.2238 H        1 ZINC001284642199    0.0500
45     H45    -0.7675    2.6825   -1.2255 H        1 ZINC001284642199    0.0500
46     H46    -0.7436    2.6691    1.2728 H        1 ZINC001284642199    0.0600
47     H47    -1.7514    1.2020    1.2746 H        1 ZINC001284642199    0.0700
48     H48     0.0259   -0.0175    2.5003 H        1 ZINC001284642199    0.0700
49     H49    -0.4990    1.4239    3.4031 H        1 ZINC001284642199    0.0600
50     H50     2.3163    3.2308    7.5910 H        1 ZINC001284642199    0.0600
51     H51     3.8233    3.9639    6.9910 H        1 ZINC001284642199    0.0600
52     H52     2.4810    3.6426    5.8671 H        1 ZINC001284642199    0.0500
53     H53     4.7189    0.3884    7.5125 H        1 ZINC001284642199    0.0600
54     H54     5.1302    2.0635    7.9519 H        1 ZINC001284642199    0.0600
55     H55     3.6232    1.3305    8.5518 H        1 ZINC001284642199    0.0600
56     H56     4.0190    2.3202    4.4083 H        1 ZINC001284642199    0.0500
57     H57     5.3613    2.6415    5.5322 H        1 ZINC001284642199    0.0500
58     H58     4.9500    0.9664    5.0928 H        1 ZINC001284642199    0.0600
59     H59    -4.7682   -0.5706    6.2371 H        1 ZINC001284642199    0.1700
@<TRIPOS>BOND
1     1     2     1
2     1     29    1
3     1     30    1
4     1     31    1
5     2     28    ar
6     2     3     ar
7     3     4     ar
8     3     32    1
9     4     5     ar
10    5     6     1
11    5     27    ar
12    6     7     1
13    6     33    1
14    6     34    1
15    7     8     1
16    7     35    1
17    8     9     1
18    8     36    1
19    8     37    1
20    9     10    1
21    9     11    1
22    9     23    1
23    11    12    am
24    11    38    1
25    12    13    2
26    12    14    1
27    14    15    1
28    14    22    1
29    14    16    1
30    16    17    1
31    16    39    1
32    16    40    1
33    17    18    1
34    17    41    1
35    17    42    1
36    18    19    1
37    18    20    1
38    18    21    1
39    20    43    1
40    20    44    1
41    20    45    1
42    21    22    1
43    21    46    1
44    21    47    1
45    22    48    1
46    22    49    1
47    23    24    1
48    23    25    1
49    23    26    1
50    24    50    1
51    24    51    1
52    24    52    1
53    25    53    1
54    25    54    1
55    25    55    1
56    26    56    1
57    26    57    1
58    26    58    1
59    27    28    ar
60    28    59    1
@<TRIPOS>SUBSTRUCTURE
1   ZINC001284642199 1     RESIDUE    1   A     ZIN   1
@<TRIPOS>MOLECULE
ZINC000288921983
50	53	1	0	0
SMALL
USER_CHARGES
@<TRIPOS>ATOM
1      C1      0.9110   -1.2026   -0.8794 C.3      1 ZINC000288921983   -0.1400
2      C2      0.5502   -2.6099   -0.3996 C.3      1 ZINC000288921983   -0.0500
3      C3     -0.9489   -2.7491   -0.3332 C.ar     1 ZINC000288921983    0.3000
4      N4     -1.5717   -2.4345    0.7849 N.ar     1 ZINC000288921983   -0.5000
5      C5     -2.8863   -2.5427    0.8835 C.ar     1 ZINC000288921983    0.1300
6      C6     -3.6110   -2.9962   -0.2154 C.ar     1 ZINC000288921983    0.0500
7      N7     -5.0037   -3.1250   -0.1539 N.am     1 ZINC000288921983   -0.6700
8      C8     -5.7541   -2.8544   -1.2402 C.2      1 ZINC000288921983    0.7100
9      O9     -5.2180   -2.5814   -2.2968 O.2      1 ZINC000288921983   -0.5500
10     N10    -7.0988   -2.8862   -1.1553 N.am     1 ZINC000288921983   -0.6200
11     C11    -7.7623   -3.1003    0.1380 C.3      1 ZINC000288921983    0.1100
12     C12    -8.7685   -1.9685    0.3693 C.3      1 ZINC000288921983   -0.1400
13     C13    -9.7252   -1.8904   -0.8227 C.3      1 ZINC000288921983   -0.1200
14     C14    -8.9333   -1.5802   -2.0950 C.3      1 ZINC000288921983   -0.1300
15     C15    -7.9291   -2.7015   -2.3533 C.3      1 ZINC000288921983    0.2700
16     H16    -8.4626   -3.6276   -2.5673 H        1 ZINC000288921983    0.1100
17     C17    -7.0568   -2.3380   -3.5272 C.2      1 ZINC000288921983    0.1700
18     N18    -6.4031   -1.2224   -3.6856 N.2      1 ZINC000288921983   -0.2500
19     N19    -5.7638   -1.2569   -4.8017 N.2      1 ZINC000288921983   -0.2700
20     C20    -5.9879   -2.3958   -5.3932 C.2      1 ZINC000288921983    0.1800
21     C21    -5.4280   -2.8363   -6.7212 C.3      1 ZINC000288921983   -0.0300
22     C22    -5.3346   -1.7033   -7.7567 C.3      1 ZINC000288921983   -0.1200
23     C23    -3.9303   -1.4162   -7.1997 C.3      1 ZINC000288921983   -0.1400
24     C24    -3.8915   -2.8879   -6.7553 C.3      1 ZINC000288921983   -0.1200
25     O25    -6.8059   -3.1075   -4.5997 O.3      1 ZINC000288921983   -0.2200
26     C26    -2.9144   -3.3177   -1.3772 C.ar     1 ZINC000288921983    0.1600
27     N27    -1.5994   -3.1767   -1.3967 N.ar     1 ZINC000288921983   -0.5000
28     H28     1.9953   -1.1020   -0.9274 H        1 ZINC000288921983    0.0700
29     H29     0.4865   -1.0363   -1.8695 H        1 ZINC000288921983    0.0600
30     H30     0.5083   -0.4670   -0.1831 H        1 ZINC000288921983    0.0600
31     H31     0.9529   -3.3456   -1.0958 H        1 ZINC000288921983    0.0900
32     H32     0.9747   -2.7762    0.5905 H        1 ZINC000288921983    0.0900
33     H33    -3.3900   -2.2835    1.8030 H        1 ZINC000288921983    0.1700
34     H34    -5.4285   -3.4091    0.6706 H        1 ZINC000288921983    0.4100
35     H35    -8.2847   -4.0569    0.1268 H        1 ZINC000288921983    0.0800
36     H36    -7.0189   -3.0968    0.9351 H        1 ZINC000288921983    0.0800
37     H37    -9.3358   -2.1663    1.2788 H        1 ZINC000288921983    0.0900
38     H38    -8.2356   -1.0231    0.4707 H        1 ZINC000288921983    0.0700
39     H39   -10.2396   -2.8443   -0.9386 H        1 ZINC000288921983    0.0700
40     H40   -10.4575   -1.1018   -0.6494 H        1 ZINC000288921983    0.0800
41     H41    -9.6180   -1.5016   -2.9395 H        1 ZINC000288921983    0.0900
42     H42    -8.3989   -0.6384   -1.9704 H        1 ZINC000288921983    0.0900
43     H43    -5.9038   -3.7399   -7.1023 H        1 ZINC000288921983    0.1000
44     H44    -5.3316   -2.0542   -8.7887 H        1 ZINC000288921983    0.1000
45     H45    -6.0459   -0.8954   -7.5853 H        1 ZINC000288921983    0.0800
46     H46    -3.1970   -1.1728   -7.9685 H        1 ZINC000288921983    0.0700
47     H47    -3.9258   -0.7093   -6.3700 H        1 ZINC000288921983    0.1000
48     H48    -3.4377   -3.0363   -5.7754 H        1 ZINC000288921983    0.0700
49     H49    -3.4939   -3.5626   -7.5135 H        1 ZINC000288921983    0.1000
50     H50    -3.4404   -3.6732   -2.2509 H        1 ZINC000288921983    0.1800
@<TRIPOS>BOND
1     1     2     1
2     1     28    1
3     1     29    1
4     1     30    1
5     2     3     1
6     2     31    1
7     2     32    1
8     3     27    ar
9     3     4     ar
10    4     5     ar
11    5     6     ar
12    5     33    1
13    6     7     1
14    6     26    ar
15    7     8     am
16    7     34    1
17    8     9     2
18    8     10    am
19    10    15    1
20    10    11    1
21    11    12    1
22    11    35    1
23    11    36    1
24    12    13    1
25    12    37    1
26    12    38    1
27    13    14    1
28    13    39    1
29    13    40    1
30    14    15    1
31    14    41    1
32    14    42    1
33    15    16    1
34    15    17    1
35    17    25    1
36    17    18    2
37    18    19    1
38    19    20    2
39    20    21    1
40    20    25    1
41    21    24    1
42    21    22    1
43    21    43    1
44    22    23    1
45    22    44    1
46    22    45    1
47    23    24    1
48    23    46    1
49    23    47    1
50    24    48    1
51    24    49    1
52    26    27    ar
53    26    50    1
@<TRIPOS>SUBSTRUCTURE
1   ZINC000288921983 1     RESIDUE    1   A     ZIN   1
@<TRIPOS>MOLECULE
ZINC000482540246
54	56	1	0	0
SMALL
USER_CHARGES
@<TRIPOS>ATOM
1      C1     -0.0173    1.4248    0.0099 C.3      1 ZINC000482540246    0.0400
2      O2      0.0021   -0.0041    0.0020 O.3      1 ZINC000482540246   -0.3100
3      C3     -1.1983   -0.6364    0.0101 C.ar     1 ZINC000482540246    0.3300
4      C4     -1.2445   -2.0244    0.0088 C.ar     1 ZINC000482540246   -0.1800
5      C5     -2.4755   -2.6573    0.0171 C.ar     1 ZINC000482540246   -0.0100
6      C6     -2.5687   -4.1615    0.0165 C.3      1 ZINC000482540246    0.2000
7      H7     -1.6249   -4.5841    0.3608 H        1 ZINC000482540246    0.1000
8      C8     -2.8605   -4.6538   -1.4025 C.3      1 ZINC000482540246   -0.1600
9      N9     -3.6486   -4.5841    0.9117 N.am     1 ZINC000482540246   -0.7400
10     C10    -3.6199   -5.8104    1.4701 C.2      1 ZINC000482540246    0.7100
11     O11    -2.6978   -6.5660    1.2308 O.2      1 ZINC000482540246   -0.5800
12     N12    -4.6134   -6.1993    2.2937 N.am     1 ZINC000482540246   -0.7400
13     C13    -4.5822   -7.5323    2.9006 C.3      1 ZINC000482540246    0.2100
14     H14    -4.1447   -8.2414    2.1979 H        1 ZINC000482540246    0.1200
15     C15    -6.0074   -7.9692    3.2453 C.3      1 ZINC000482540246    0.0500
16     O16    -6.5393   -7.1072    4.2533 O.3      1 ZINC000482540246   -0.3000
17     C17    -7.8065   -7.3601    4.6759 C.ar     1 ZINC000482540246    0.1000
18     C18    -8.5202   -8.4188    4.1362 C.ar     1 ZINC000482540246   -0.1800
19     C19    -9.8082   -8.6745    4.5677 C.ar     1 ZINC000482540246   -0.0900
20     C20   -10.3859   -7.8761    5.5368 C.ar     1 ZINC000482540246   -0.1300
21     C21    -9.6775   -6.8185    6.0777 C.ar     1 ZINC000482540246   -0.1200
22     C22    -8.3865   -6.5615    5.6539 C.ar     1 ZINC000482540246    0.0700
23     F23    -7.6942   -5.5285    6.1820 F        1 ZINC000482540246   -0.1300
24     C24    -3.7512   -7.4928    4.1572 C.ar     1 ZINC000482540246   -0.1000
25     C25    -3.8443   -6.4117    5.0137 C.ar     1 ZINC000482540246   -0.0800
26     C26    -3.0820   -6.3755    6.1663 C.ar     1 ZINC000482540246   -0.1200
27     C27    -2.2270   -7.4205    6.4627 C.ar     1 ZINC000482540246   -0.1200
28     C28    -2.1346   -8.5019    5.6067 C.ar     1 ZINC000482540246   -0.1200
29     C29    -2.9001   -8.5402    4.4562 C.ar     1 ZINC000482540246   -0.1000
30     C30    -3.6218   -1.8752    0.0264 C.ar     1 ZINC000482540246   -0.2100
31     C31    -3.5011   -0.4995    0.0271 C.ar     1 ZINC000482540246    0.1500
32     N32    -2.3134    0.0750    0.0245 N.ar     1 ZINC000482540246   -0.5400
33     H33     1.0053    1.8021    0.0021 H        1 ZINC000482540246    0.1000
34     H34    -0.5445    1.7859   -0.8732 H        1 ZINC000482540246    0.0600
35     H35    -0.5275    1.7763    0.9067 H        1 ZINC000482540246    0.0600
36     H36    -0.3321   -2.6023    0.0011 H        1 ZINC000482540246    0.1500
37     H37    -3.8043   -4.2311   -1.7468 H        1 ZINC000482540246    0.0600
38     H38    -2.0570   -4.3393   -2.0685 H        1 ZINC000482540246    0.0700
39     H39    -2.9279   -5.7417   -1.4029 H        1 ZINC000482540246    0.0700
40     H40    -4.3842   -3.9814    1.1026 H        1 ZINC000482540246    0.4000
41     H41    -5.3490   -5.5966    2.4846 H        1 ZINC000482540246    0.4000
42     H42    -6.6306   -7.9125    2.3528 H        1 ZINC000482540246    0.0800
43     H43    -5.9938   -8.9947    3.6144 H        1 ZINC000482540246    0.0800
44     H44    -8.0702   -9.0433    3.3786 H        1 ZINC000482540246    0.1400
45     H45   -10.3642   -9.4992    4.1467 H        1 ZINC000482540246    0.1300
46     H46   -11.3924   -8.0782    5.8720 H        1 ZINC000482540246    0.1400
47     H47   -10.1313   -6.1958    6.8345 H        1 ZINC000482540246    0.1400
48     H48    -4.5123   -5.5953    4.7821 H        1 ZINC000482540246    0.1200
49     H49    -3.1542   -5.5305    6.8351 H        1 ZINC000482540246    0.1200
50     H50    -1.6310   -7.3918    7.3629 H        1 ZINC000482540246    0.1200
51     H51    -1.4664   -9.3182    5.8380 H        1 ZINC000482540246    0.1200
52     H52    -2.8279   -9.3851    3.7874 H        1 ZINC000482540246    0.1200
53     H53    -4.5979   -2.3374    0.0327 H        1 ZINC000482540246    0.1400
54     H54    -4.3900    0.1137    0.0344 H        1 ZINC000482540246    0.1600
@<TRIPOS>BOND
1     1     2     1
2     1     33    1
3     1     34    1
4     1     35    1
5     2     3     1
6     3     32    ar
7     3     4     ar
8     4     5     ar
9     4     36    1
10    5     6     1
11    5     30    ar
12    6     7     1
13    6     8     1
14    6     9     1
15    8     37    1
16    8     38    1
17    8     39    1
18    9     10    am
19    9     40    1
20    10    11    2
21    10    12    am
22    12    13    1
23    12    41    1
24    13    14    1
25    13    15    1
26    13    24    1
27    15    16    1
28    15    42    1
29    15    43    1
30    16    17    1
31    17    22    ar
32    17    18    ar
33    18    19    ar
34    18    44    1
35    19    20    ar
36    19    45    1
37    20    21    ar
38    20    46    1
39    21    22    ar
40    21    47    1
41    22    23    1
42    24    29    ar
43    24    25    ar
44    25    26    ar
45    25    48    1
46    26    27    ar
47    26    49    1
48    27    28    ar
49    27    50    1
50    28    29    ar
51    28    51    1
52    29    52    1
53    30    31    ar
54    30    53    1
55    31    32    ar
56    31    54    1
@<TRIPOS>SUBSTRUCTURE
1   ZINC000482540246 1     RESIDUE    1   A     ZIN   1
@<TRIPOS>MOLECULE
ZINC000446721380
49	51	1	0	0
SMALL
USER_CHARGES
@<TRIPOS>ATOM
1      C1     -0.0040    1.5012    0.0735 C.3      1 ZINC000446721380   -0.1200
2      C2      0.0139   -0.0056    0.0544 C.ar     1 ZINC000446721380   -0.0300
3      C3      0.0186   -0.6810   -1.1518 C.ar     1 ZINC000446721380   -0.1600
4      C4      0.0350   -2.0636   -1.1727 C.ar     1 ZINC000446721380   -0.0500
5      C5      0.0468   -2.7733    0.0122 C.ar     1 ZINC000446721380   -0.1500
6      C6      0.0652   -4.2800   -0.0113 C.3      1 ZINC000446721380    0.1900
7      N7     -1.2882   -4.7886    0.2244 N.am     1 ZINC000446721380   -0.7300
8      C8     -1.5144   -6.1171    0.2471 C.2      1 ZINC000446721380    0.7100
9      O9     -0.5952   -6.8934    0.0720 O.2      1 ZINC000446721380   -0.5700
10     N10    -2.7596   -6.5850    0.4640 N.am     1 ZINC000446721380   -0.6900
11     C11    -3.0126   -7.9601    0.3943 C.ar     1 ZINC000446721380    0.2000
12     C12    -2.0494   -8.8667    0.8152 C.ar     1 ZINC000446721380   -0.1200
13     C13    -2.3022  -10.2232    0.7456 C.ar     1 ZINC000446721380   -0.0800
14     C14    -3.5129  -10.6785    0.2575 C.ar     1 ZINC000446721380   -0.1300
15     C15    -4.4749   -9.7783   -0.1632 C.ar     1 ZINC000446721380   -0.0700
16     C16    -4.2307   -8.4203   -0.0910 C.ar     1 ZINC000446721380   -0.1300
17     Br17   -5.5466   -7.1899   -0.6657 Br       1 ZINC000446721380   -0.0500
18     C18     0.0422   -2.0977    1.2242 C.ar     1 ZINC000446721380    0.1500
19     O19     0.0542   -2.7937    2.3914 O.3      1 ZINC000446721380   -0.3100
20     C20     0.0484   -2.0325    3.6007 C.3      1 ZINC000446721380    0.0700
21     C21     0.0637   -2.9815    4.8008 C.3      1 ZINC000446721380   -0.1200
22     H22    -0.7573   -3.6952    4.7320 H        1 ZINC000446721380    0.1000
23     C23    -0.0220   -2.1828    6.1242 C.3      1 ZINC000446721380   -0.1500
24     C24     0.9773   -2.9469    7.0298 C.3      1 ZINC000446721380    0.0500
25     O25     2.0376   -3.3182    6.1229 O.3      1 ZINC000446721380   -0.3800
26     C26     1.4138   -3.7192    4.8879 C.3      1 ZINC000446721380    0.0500
27     C27     0.0313   -0.7108    1.2424 C.ar     1 ZINC000446721380   -0.2100
28     H28     1.0192    1.8768    0.0704 H        1 ZINC000446721380    0.0800
29     H29    -0.5290    1.8695   -0.8079 H        1 ZINC000446721380    0.0700
30     H30    -0.5153    1.8471    0.9719 H        1 ZINC000446721380    0.0700
31     H31     0.0090   -0.1279   -2.0794 H        1 ZINC000446721380    0.1300
32     H32     0.0383   -2.5889   -2.1163 H        1 ZINC000446721380    0.1300
33     H33     0.4184   -4.6239   -0.9835 H        1 ZINC000446721380    0.0800
34     H34     0.7324   -4.6474    0.7684 H        1 ZINC000446721380    0.0800
35     H35    -2.0216   -4.1693    0.3642 H        1 ZINC000446721380    0.4000
36     H36    -3.4805   -5.9690    0.6684 H        1 ZINC000446721380    0.4100
37     H37    -1.1032   -8.5121    1.1963 H        1 ZINC000446721380    0.1500
38     H38    -1.5528  -10.9289    1.0726 H        1 ZINC000446721380    0.1300
39     H39    -3.7078  -11.7394    0.2042 H        1 ZINC000446721380    0.1300
40     H40    -5.4194  -10.1371   -0.5447 H        1 ZINC000446721380    0.1400
41     H41     0.9308   -1.3932    3.6318 H        1 ZINC000446721380    0.0700
42     H42    -0.8491   -1.4150    3.6371 H        1 ZINC000446721380    0.0700
43     H43     0.2969   -1.1509    5.9772 H        1 ZINC000446721380    0.0800
44     H44    -1.0298   -2.2219    6.5376 H        1 ZINC000446721380    0.0900
45     H45     1.3564   -2.2960    7.8176 H        1 ZINC000446721380    0.1000
46     H46     0.5084   -3.8339    7.4558 H        1 ZINC000446721380    0.0600
47     H47     1.2513   -4.7970    4.8876 H        1 ZINC000446721380    0.0600
48     H48     2.0451   -3.4373    4.0452 H        1 ZINC000446721380    0.0900
49     H49     0.0277   -0.1827    2.1845 H        1 ZINC000446721380    0.1300
@<TRIPOS>BOND
1     1     2     1
2     1     28    1
3     1     29    1
4     1     30    1
5     2     27    ar
6     2     3     ar
7     3     4     ar
8     3     31    1
9     4     5     ar
10    4     32    1
11    5     6     1
12    5     18    ar
13    6     7     1
14    6     33    1
15    6     34    1
16    7     8     am
17    7     35    1
18    8     9     2
19    8     10    am
20    10    11    1
21    10    36    1
22    11    16    ar
23    11    12    ar
24    12    13    ar
25    12    37    1
26    13    14    ar
27    13    38    1
28    14    15    ar
29    14    39    1
30    15    16    ar
31    15    40    1
32    16    17    1
33    18    19    1
34    18    27    ar
35    19    20    1
36    20    21    1
37    20    41    1
38    20    42    1
39    21    22    1
40    21    26    1
41    21    23    1
42    23    24    1
43    23    43    1
44    23    44    1
45    24    25    1
46    24    45    1
47    24    46    1
48    25    26    1
49    26    47    1
50    26    48    1
51    27    49    1
@<TRIPOS>SUBSTRUCTURE
1   ZINC000446721380 1     RESIDUE    1   A     ZIN   1
@<TRIPOS>MOLECULE
ZINC000494558165
55	57	1	0	0
SMALL
USER_CHARGES
@<TRIPOS>ATOM
1      O1      0.0299   -0.0088    0.3363 O.2      1 ZINC000494558165   -0.4400
2      C2      0.0008    1.2008    0.2605 C.2      1 ZINC000494558165    0.5100
3      C3      1.2783    1.9741    0.0579 C.3      1 ZINC000494558165    0.0300
4      N4      2.4097    1.0400   -0.0154 N.3      1 ZINC000494558165   -0.5000
5      C5      2.3561    0.2439   -1.2488 C.3      1 ZINC000494558165    0.0500
6      C6      3.3934   -0.8785   -1.1768 C.3      1 ZINC000494558165   -0.1100
7      C7      3.3376   -1.7076   -2.4614 C.3      1 ZINC000494558165    0.0800
8      O8      4.3064   -2.7559   -2.3942 O.3      1 ZINC000494558165   -0.5700
9      C9      3.6892    1.7532    0.0958 C.3      1 ZINC000494558165    0.1200
10     H10     4.5161    1.0847   -0.1440 H        1 ZINC000494558165    0.1000
11     C11     3.8602    2.3279    1.5180 C.3      1 ZINC000494558165   -0.1200
12     C12     3.2838    3.7522    1.3714 C.3      1 ZINC000494558165   -0.0900
13     C13     3.4680    4.1057   -0.0888 C.ar     1 ZINC000494558165   -0.0900
14     C14     3.4341    5.3346   -0.7257 C.ar     1 ZINC000494558165   -0.1100
15     C15     3.6322    5.4160   -2.0905 C.ar     1 ZINC000494558165   -0.1100
16     C16     3.8652    4.2676   -2.8233 C.ar     1 ZINC000494558165   -0.1200
17     C17     3.8994    3.0405   -2.1896 C.ar     1 ZINC000494558165   -0.1000
18     C18     3.7020    2.9554   -0.8239 C.ar     1 ZINC000494558165   -0.1300
19     N19    -1.1748    1.8536    0.3517 N.am     1 ZINC000494558165   -0.6900
20     C20    -2.3180    1.1616    0.5274 C.2      1 ZINC000494558165    0.7000
21     O21    -2.2888   -0.0510    0.6034 O.2      1 ZINC000494558165   -0.5200
22     N22    -3.4936    1.8144    0.6186 N.am     1 ZINC000494558165   -0.7300
23     C23    -4.7362    1.0623    0.8095 C.3      1 ZINC000494558165    0.1700
24     H24    -4.6735    0.1109    0.2812 H        1 ZINC000494558165    0.1200
25     C25    -4.9610    0.8068    2.3102 C.3      1 ZINC000494558165   -0.1400
26     C26    -6.4238    0.3158    2.4624 C.3      1 ZINC000494558165   -0.5800
27     S27    -7.3392    1.4344    1.3354 S.o2     1 ZINC000494558165    2.4000
28     O28    -8.2804    0.6795    0.5847 O.2      1 ZINC000494558165   -0.9300
29     O29    -7.7660    2.5825    2.0557 O.2      1 ZINC000494558165   -0.9300
30     C30    -5.9253    1.8794    0.2664 C.3      1 ZINC000494558165   -0.6200
31     H31     1.2157    2.5425   -0.8701 H        1 ZINC000494558165    0.0700
32     H32     1.4254    2.6581    0.8937 H        1 ZINC000494558165    0.1200
33     H33     1.3613   -0.1873   -1.3600 H        1 ZINC000494558165    0.0900
34     H34     2.5723    0.8841   -2.1041 H        1 ZINC000494558165    0.0400
35     H35     4.3883   -0.4472   -1.0656 H        1 ZINC000494558165    0.0700
36     H36     3.1772   -1.5186   -0.3215 H        1 ZINC000494558165    0.0800
37     H37     2.3427   -2.1389   -2.5726 H        1 ZINC000494558165    0.0500
38     H38     3.5538   -1.0674   -3.3167 H        1 ZINC000494558165    0.0400
39     H39     4.3272   -3.3231   -3.1771 H        1 ZINC000494558165    0.3800
40     H40     3.2850    1.7498    2.2412 H        1 ZINC000494558165    0.0900
41     H41     4.9131    2.3629    1.7977 H        1 ZINC000494558165    0.0800
42     H42     2.2255    3.7606    1.6320 H        1 ZINC000494558165    0.0800
43     H43     3.8349    4.4499    2.0019 H        1 ZINC000494558165    0.0800
44     H44     3.2518    6.2324   -0.1538 H        1 ZINC000494558165    0.1200
45     H45     3.6055    6.3762   -2.5842 H        1 ZINC000494558165    0.1300
46     H46     4.0199    4.3294   -3.8904 H        1 ZINC000494558165    0.1200
47     H47     4.0811    2.1435   -2.7630 H        1 ZINC000494558165    0.1200
48     H48    -1.1982    2.8214    0.2910 H        1 ZINC000494558165    0.4100
49     H49    -3.5169    2.7822    0.5579 H        1 ZINC000494558165    0.4000
50     H50    -4.2713    0.0413    2.6660 H        1 ZINC000494558165    0.1100
51     H51    -4.8167    1.7299    2.8717 H        1 ZINC000494558165    0.0900
52     H52    -6.5193   -0.7211    2.1400 H        1 ZINC000494558165    0.1400
53     H53    -6.7673    0.4359    3.4898 H        1 ZINC000494558165    0.1400
54     H54    -5.7174    2.9469    0.3388 H        1 ZINC000494558165    0.1500
55     H55    -6.1306    1.6021   -0.7675 H        1 ZINC000494558165    0.1500
@<TRIPOS>BOND
1     1     2     2
2     2     3     1
3     2     19    am
4     3     4     1
5     3     31    1
6     3     32    1
7     4     5     1
8     4     9     1
9     5     6     1
10    5     33    1
11    5     34    1
12    6     7     1
13    6     35    1
14    6     36    1
15    7     8     1
16    7     37    1
17    7     38    1
18    8     39    1
19    9     10    1
20    9     18    1
21    9     11    1
22    11    12    1
23    11    40    1
24    11    41    1
25    12    13    1
26    12    42    1
27    12    43    1
28    13    18    ar
29    13    14    ar
30    14    15    ar
31    14    44    1
32    15    16    ar
33    15    45    1
34    16    17    ar
35    16    46    1
36    17    18    ar
37    17    47    1
38    19    20    am
39    19    48    1
40    20    21    2
41    20    22    am
42    22    23    1
43    22    49    1
44    23    24    1
45    23    30    1
46    23    25    1
47    25    26    1
48    25    50    1
49    25    51    1
50    26    27    1
51    26    52    1
52    26    53    1
53    27    28    2
54    27    29    2
55    27    30    1
56    30    54    1
57    30    55    1
@<TRIPOS>SUBSTRUCTURE
1   ZINC000494558165 1     RESIDUE    1   A     ZIN   1
@<TRIPOS>MOLECULE
ZINC000534799364
55	59	1	0	0
SMALL
USER_CHARGES
@<TRIPOS>ATOM
1      C1     -1.8923   -2.1442    1.9925 C.3      1 ZINC000534799364   -0.1100
2      C2     -0.8851   -1.7415    0.9464 C.ar     1 ZINC000534799364   -0.0200
3      C3     -0.7809   -2.4407   -0.2446 C.ar     1 ZINC000534799364   -0.1700
4      C4      0.1548   -2.0429   -1.1817 C.ar     1 ZINC000534799364    0.1000
5      N5      0.9443   -1.0114   -0.9555 N.ar     1 ZINC000534799364   -0.4800
6      C6      0.8784   -0.3186    0.1640 C.ar     1 ZINC000534799364    0.0800
7      C7     -0.0398   -0.6532    1.1509 C.ar     1 ZINC000534799364    0.0300
8      N8     -0.1070    0.0837    2.3359 N.3      1 ZINC000534799364   -0.5000
9      C9     -0.4091    1.4955    2.0617 C.3      1 ZINC000534799364    0.0600
10     C10    -0.5525    2.2502    3.3854 C.3      1 ZINC000534799364    0.0600
11     N11     0.6914    2.1211    4.1572 N.3      1 ZINC000534799364   -0.5300
12     C12     0.6207    2.8960    5.4032 C.3      1 ZINC000534799364    0.1400
13     C13     1.9839    2.9424    6.0439 C.2      1 ZINC000534799364    0.1100
14     N14     2.4563    2.0772    6.9035 N.2      1 ZINC000534799364   -0.2800
15     N15     3.7517    2.4736    7.2568 N.pl3    1 ZINC000534799364   -0.3100
16     C16     4.6011    1.8118    8.1554 C.ar     1 ZINC000534799364    0.1500
17     C17     5.9714    1.7959    7.9332 C.ar     1 ZINC000534799364   -0.1000
18     C18     6.8062    1.1437    8.8192 C.ar     1 ZINC000534799364   -0.1300
19     C19     6.2772    0.5058    9.9287 C.ar     1 ZINC000534799364    0.1000
20     F20     7.0954   -0.1314   10.7945 F        1 ZINC000534799364   -0.1300
21     C21     4.9105    0.5206   10.1520 C.ar     1 ZINC000534799364   -0.1300
22     C22     4.0731    1.1767    9.2713 C.ar     1 ZINC000534799364   -0.0800
23     C23     4.0396    3.6096    6.5770 C.2      1 ZINC000534799364    0.0500
24     C24     2.9657    3.9171    5.8162 C.2      1 ZINC000534799364   -0.2200
25     C25     3.2273    5.1829    5.0285 C.3      1 ZINC000534799364   -0.0400
26     C26     4.4326    5.8478    5.7285 C.3      1 ZINC000534799364   -0.1200
27     C27     5.1352    4.6341    6.3776 C.3      1 ZINC000534799364   -0.0500
28     C28     0.9935    0.7093    4.4314 C.3      1 ZINC000534799364    0.0600
29     C29     1.1369   -0.0454    3.1077 C.3      1 ZINC000534799364    0.0600
30     H30    -2.7996   -1.5526    1.8701 H        1 ZINC000534799364    0.0800
31     H31    -2.1303   -3.2019    1.8797 H        1 ZINC000534799364    0.0600
32     H32    -1.4756   -1.9693    2.9844 H        1 ZINC000534799364    0.0800
33     H33    -1.4228   -3.2872   -0.4389 H        1 ZINC000534799364    0.1400
34     H34     0.2404   -2.5850   -2.1119 H        1 ZINC000534799364    0.1600
35     H35     1.5421    0.5202    0.3135 H        1 ZINC000534799364    0.1500
36     H36     0.4009    1.9342    1.4789 H        1 ZINC000534799364    0.0500
37     H37    -1.3408    1.5656    1.5003 H        1 ZINC000534799364    0.0800
38     H38    -0.7480    3.3035    3.1842 H        1 ZINC000534799364    0.0900
39     H39    -1.3801    1.8291    3.9563 H        1 ZINC000534799364    0.0500
40     H40     0.2885    3.9103    5.1819 H        1 ZINC000534799364    0.1000
41     H41    -0.0856    2.4231    6.0855 H        1 ZINC000534799364    0.0500
42     H42     6.3842    2.2930    7.0678 H        1 ZINC000534799364    0.1400
43     H43     7.8722    1.1308    8.6464 H        1 ZINC000534799364    0.1500
44     H44     4.4997    0.0222   11.0176 H        1 ZINC000534799364    0.1500
45     H45     3.0074    1.1883    9.4459 H        1 ZINC000534799364    0.1400
46     H46     3.4755    4.9413    3.9950 H        1 ZINC000534799364    0.0800
47     H47     2.3578    5.8391    5.0665 H        1 ZINC000534799364    0.0700
48     H48     5.0860    6.3318    5.0027 H        1 ZINC000534799364    0.0800
49     H49     4.0999    6.5582    6.4853 H        1 ZINC000534799364    0.0800
50     H50     5.5670    4.9153    7.3381 H        1 ZINC000534799364    0.0800
51     H51     5.9070    4.2437    5.7142 H        1 ZINC000534799364    0.0900
52     H52     1.9252    0.6392    4.9928 H        1 ZINC000534799364    0.0900
53     H53     0.1835    0.2707    5.0142 H        1 ZINC000534799364    0.0500
54     H54     1.3324   -1.0987    3.3089 H        1 ZINC000534799364    0.0800
55     H55     1.9644    0.3758    2.5368 H        1 ZINC000534799364    0.0500
@<TRIPOS>BOND
1     1     2     1
2     1     30    1
3     1     31    1
4     1     32    1
5     2     7     ar
6     2     3     ar
7     3     4     ar
8     3     33    1
9     4     5     ar
10    4     34    1
11    5     6     ar
12    6     7     ar
13    6     35    1
14    7     8     1
15    8     29    1
16    8     9     1
17    9     10    1
18    9     36    1
19    9     37    1
20    10    11    1
21    10    38    1
22    10    39    1
23    11    12    1
24    11    28    1
25    12    13    1
26    12    40    1
27    12    41    1
28    13    24    1
29    13    14    2
30    14    15    1
31    15    16    1
32    15    23    1
33    16    22    ar
34    16    17    ar
35    17    18    ar
36    17    42    1
37    18    19    ar
38    18    43    1
39    19    20    1
40    19    21    ar
41    21    22    ar
42    21    44    1
43    22    45    1
44    23    27    1
45    23    24    2
46    24    25    1
47    25    26    1
48    25    46    1
49    25    47    1
50    26    27    1
51    26    48    1
52    26    49    1
53    27    50    1
54    27    51    1
55    28    29    1
56    28    52    1
57    28    53    1
58    29    54    1
59    29    55    1
@<TRIPOS>SUBSTRUCTURE
1   ZINC000534799364 1     RESIDUE    1   A     ZIN   1
@<TRIPOS>MOLECULE
ZINC001053433946
51	54	1	0	0
SMALL
USER_CHARGES
@<TRIPOS>ATOM
1      N1      0.7535    0.2192    0.8289 N.am     1 ZINC001053433946   -0.8300
2      C2     -0.1195   -0.5690    1.4869 C.2      1 ZINC001053433946    0.5600
3      O3      0.0902   -0.8742    2.6418 O.2      1 ZINC001053433946   -0.5500
4      C4     -1.3564   -1.0712    0.7876 C.3      1 ZINC001053433946   -0.1600
5      H5     -2.0678   -0.3041    0.4818 H        1 ZINC001053433946    0.1400
6      C6     -1.9215   -2.4211    1.2341 C.3      1 ZINC001053433946   -0.1300
7      C7     -1.2088   -2.2978   -0.1150 C.3      1 ZINC001053433946   -0.1700
8      H8     -1.8233   -2.3379   -1.0143 H        1 ZINC001053433946    0.1400
9      C9      0.1619   -2.9121   -0.2365 C.2      1 ZINC001053433946    0.5400
10     O10     1.1496   -2.2147   -0.1416 O.2      1 ZINC001053433946   -0.5200
11     N11     0.2902   -4.2366   -0.4506 N.am     1 ZINC001053433946   -0.6100
12     C12    -0.8921   -5.1033   -0.5755 C.3      1 ZINC001053433946    0.0700
13     C13    -0.7449   -6.2791    0.3959 C.3      1 ZINC001053433946    0.0500
14     O14     0.5045   -6.9357    0.1595 O.3      1 ZINC001053433946   -0.3400
15     C15     1.6423   -6.0962    0.3359 C.3      1 ZINC001053433946    0.0800
16     C16     1.9516   -5.7743    1.8041 C.3      1 ZINC001053433946   -0.0100
17     N17     2.8223   -6.9714    1.7762 N.3      1 ZINC001053433946   -0.4700
18     C18     4.0945   -6.7132    2.4639 C.3      1 ZINC001053433946    0.0200
19     C19     5.0595   -7.8715    2.2030 C.3      1 ZINC001053433946   -0.1200
20     H20     5.1690   -8.0194    1.1287 H        1 ZINC001053433946    0.0800
21     C21     6.4251   -7.5482    2.8170 C.3      1 ZINC001053433946   -0.1200
22     C22     7.3587   -8.7461    2.6176 C.3      1 ZINC001053433946   -0.1600
23     C23     6.7208   -9.9898    3.2420 C.3      1 ZINC001053433946    0.0600
24     O24     5.4407  -10.2160    2.6482 O.3      1 ZINC001053433946   -0.3800
25     C25     4.5096   -9.1494    2.8420 C.3      1 ZINC001053433946    0.0700
26     C26     2.9783   -6.8504    0.3089 C.3      1 ZINC001053433946    0.0200
27     C27     1.6189   -4.8615   -0.5730 C.3      1 ZINC001053433946    0.1000
28     H28     1.5496    0.5424    1.2791 H        1 ZINC001053433946    0.4000
29     H29     0.5878    0.4600   -0.0960 H        1 ZINC001053433946    0.4000
30     H30    -1.3987   -2.9459    2.0337 H        1 ZINC001053433946    0.1100
31     H31    -3.0047   -2.5421    1.2217 H        1 ZINC001053433946    0.1200
32     H32    -1.7893   -4.5355   -0.3288 H        1 ZINC001053433946    0.1000
33     H33    -0.9637   -5.4790   -1.5962 H        1 ZINC001053433946    0.0800
34     H34    -0.7735   -5.9098    1.4210 H        1 ZINC001053433946    0.0600
35     H35    -1.5615   -6.9841    0.2400 H        1 ZINC001053433946    0.1100
36     H36     2.4941   -4.8394    1.9443 H        1 ZINC001053433946    0.0800
37     H37     1.0912   -5.8720    2.4662 H        1 ZINC001053433946    0.0900
38     H38     4.5290   -5.7867    2.0884 H        1 ZINC001053433946    0.0500
39     H39     3.9164   -6.6229    3.5354 H        1 ZINC001053433946    0.0800
40     H40     6.8472   -6.6713    2.3261 H        1 ZINC001053433946    0.0700
41     H41     6.3082   -7.3504    3.8825 H        1 ZINC001053433946    0.0700
42     H42     7.5149   -8.9128    1.5518 H        1 ZINC001053433946    0.0700
43     H43     8.3156   -8.5464    3.1000 H        1 ZINC001053433946    0.0700
44     H44     7.3611  -10.8541    3.0657 H        1 ZINC001053433946    0.0900
45     H45     6.6021   -9.8379    4.3148 H        1 ZINC001053433946    0.0500
46     H46     4.3614   -8.9856    3.9094 H        1 ZINC001053433946    0.0500
47     H47     3.5579   -9.4089    2.3783 H        1 ZINC001053433946    0.1000
48     H48     2.9344   -7.8036   -0.2179 H        1 ZINC001053433946    0.1000
49     H49     3.8249   -6.2341    0.0062 H        1 ZINC001053433946    0.0900
50     H50     1.7981   -5.1609   -1.6057 H        1 ZINC001053433946    0.0800
51     H51     2.3863   -4.1556   -0.2552 H        1 ZINC001053433946    0.1000
@<TRIPOS>BOND
1     1     2     am
2     1     28    1
3     1     29    1
4     2     3     2
5     2     4     1
6     4     5     1
7     4     7     1
8     4     6     1
9     6     7     1
10    6     30    1
11    6     31    1
12    7     8     1
13    7     9     1
14    9     10    2
15    9     11    am
16    11    27    1
17    11    12    1
18    12    13    1
19    12    32    1
20    12    33    1
21    13    14    1
22    13    34    1
23    13    35    1
24    14    15    1
25    15    26    1
26    15    16    1
27    15    27    1
28    16    17    1
29    16    36    1
30    16    37    1
31    17    18    1
32    17    26    1
33    18    19    1
34    18    38    1
35    18    39    1
36    19    20    1
37    19    25    1
38    19    21    1
39    21    22    1
40    21    40    1
41    21    41    1
42    22    23    1
43    22    42    1
44    22    43    1
45    23    24    1
46    23    44    1
47    23    45    1
48    24    25    1
49    25    46    1
50    25    47    1
51    26    48    1
52    26    49    1
53    27    50    1
54    27    51    1
@<TRIPOS>SUBSTRUCTURE
1   ZINC001053433946 1     RESIDUE    1   A     ZIN   1
@<TRIPOS>MOLECULE
ZINC000433961694
49	52	1	0	0
SMALL
USER_CHARGES
@<TRIPOS>ATOM
1      C1     -0.7982    0.8844    0.4034 C.3      1 ZINC000433961694   -0.1000
2      C2     -0.7910   -0.6106    0.2138 C.2      1 ZINC000433961694    0.1600
3      C3     -0.6147   -1.1993   -0.9956 C.2      1 ZINC000433961694   -0.3000
4      C4     -0.4097   -0.5073   -2.2726 C.2      1 ZINC000433961694    0.6200
5      O5     -0.4935    0.7054   -2.3278 O.2      1 ZINC000433961694   -0.5100
6      N6     -0.1285   -1.2147   -3.3848 N.am     1 ZINC000433961694   -0.6100
7      C7      0.2076   -0.6460   -4.7028 C.3      1 ZINC000433961694    0.1100
8      C8      1.0195   -1.7547   -5.4178 C.3      1 ZINC000433961694   -0.1300
9      C9      0.2909   -3.0360   -4.9332 C.3      1 ZINC000433961694    0.0800
10     H10    -0.5946   -3.2286   -5.5390 H        1 ZINC000433961694    0.1000
11     O11     1.1732   -4.1598   -4.9593 O.3      1 ZINC000433961694   -0.2900
12     C12     0.6035   -5.3887   -5.0469 C.ar     1 ZINC000433961694    0.1700
13     C13    -0.7803   -5.5390   -5.0022 C.ar     1 ZINC000433961694   -0.2600
14     C14    -1.3208   -6.8051   -5.0944 C.ar     1 ZINC000433961694    0.1400
15     N15    -0.5442   -7.8641   -5.2235 N.ar     1 ZINC000433961694   -0.5100
16     C16     0.7707   -7.7623   -5.2698 C.ar     1 ZINC000433961694    0.1400
17     C17     1.3876   -6.5307   -5.1897 C.ar     1 ZINC000433961694   -0.2000
18     C18    -0.0998   -2.6814   -3.4831 C.3      1 ZINC000433961694    0.0600
19     S19    -0.6755   -2.9442   -0.7574 S.3      1 ZINC000433961694    0.2100
20     C20    -0.9280   -2.7161    0.9179 C.2      1 ZINC000433961694    0.0400
21     C21    -1.0960   -3.8276    1.9216 C.3      1 ZINC000433961694    0.1400
22     O22    -2.4809   -4.1611    2.0357 O.3      1 ZINC000433961694   -0.3000
23     C23    -2.8072   -5.1528    2.9065 C.ar     1 ZINC000433961694    0.1200
24     C24    -1.8152   -5.7871    3.6396 C.ar     1 ZINC000433961694   -0.1800
25     C25    -2.1482   -6.7947    4.5241 C.ar     1 ZINC000433961694   -0.1100
26     C26    -3.4714   -7.1718    4.6786 C.ar     1 ZINC000433961694    0.0600
27     F27    -3.7957   -8.1576    5.5436 F        1 ZINC000433961694   -0.1400
28     C28    -4.4627   -6.5391    3.9478 C.ar     1 ZINC000433961694   -0.1100
29     C29    -4.1331   -5.5273    3.0668 C.ar     1 ZINC000433961694   -0.1200
30     N30    -0.9489   -1.4538    1.2031 N.2      1 ZINC000433961694   -0.4500
31     H31     0.2166    1.2306    0.5997 H        1 ZINC000433961694    0.0800
32     H32    -1.1772    1.3633   -0.4994 H        1 ZINC000433961694    0.1000
33     H33    -1.4391    1.1406    1.2470 H        1 ZINC000433961694    0.0800
34     H34    -0.7008   -0.4208   -5.2616 H        1 ZINC000433961694    0.0800
35     H35     0.8139    0.2521   -4.5850 H        1 ZINC000433961694    0.1000
36     H36     0.9511   -1.6522   -6.5008 H        1 ZINC000433961694    0.1000
37     H37     2.0595   -1.7495   -5.0914 H        1 ZINC000433961694    0.1000
38     H38    -1.4215   -4.6764   -4.8963 H        1 ZINC000433961694    0.1400
39     H39    -2.3929   -6.9310   -5.0602 H        1 ZINC000433961694    0.1600
40     H40     1.3712   -8.6536   -5.3761 H        1 ZINC000433961694    0.1700
41     H41     2.4642   -6.4542   -5.2285 H        1 ZINC000433961694    0.1400
42     H42     0.6360   -3.0899   -2.7904 H        1 ZINC000433961694    0.0900
43     H43    -1.0878   -3.0824   -3.2568 H        1 ZINC000433961694    0.0800
44     H44    -0.5375   -4.7033    1.5909 H        1 ZINC000433961694    0.0900
45     H45    -0.7197   -3.5016    2.8912 H        1 ZINC000433961694    0.1000
46     H46    -0.7829   -5.4937    3.5187 H        1 ZINC000433961694    0.1400
47     H47    -1.3760   -7.2888    5.0950 H        1 ZINC000433961694    0.1400
48     H48    -5.4945   -6.8340    4.0695 H        1 ZINC000433961694    0.1500
49     H49    -4.9065   -5.0339    2.4969 H        1 ZINC000433961694    0.1400
@<TRIPOS>BOND
1     1     2     1
2     1     31    1
3     1     32    1
4     1     33    1
5     2     30    1
6     2     3     2
7     3     4     1
8     3     19    1
9     4     5     2
10    4     6     am
11    6     18    1
12    6     7     1
13    7     8     1
14    7     34    1
15    7     35    1
16    8     9     1
17    8     36    1
18    8     37    1
19    9     10    1
20    9     11    1
21    9     18    1
22    11    12    1
23    12    17    ar
24    12    13    ar
25    13    14    ar
26    13    38    1
27    14    15    ar
28    14    39    1
29    15    16    ar
30    16    17    ar
31    16    40    1
32    17    41    1
33    18    42    1
34    18    43    1
35    19    20    1
36    20    21    1
37    20    30    2
38    21    22    1
39    21    44    1
40    21    45    1
41    22    23    1
42    23    29    ar
43    23    24    ar
44    24    25    ar
45    24    46    1
46    25    26    ar
47    25    47    1
48    26    27    1
49    26    28    ar
50    28    29    ar
51    28    48    1
52    29    49    1
@<TRIPOS>SUBSTRUCTURE
1   ZINC000433961694 1     RESIDUE    1   A     ZIN   1
@<TRIPOS>MOLECULE
ZINC000624498741
43	45	1	0	0
SMALL
USER_CHARGES
@<TRIPOS>ATOM
1      C1     -0.0184    1.5028    0.0103 C.3      1 ZINC000624498741   -0.1100
2      C2      0.0021   -0.0041    0.0020 C.ar     1 ZINC000624498741   -0.0900
3      C3      0.0058   -0.6853   -1.1951 C.ar     1 ZINC000624498741   -0.0400
4      C4      0.0252   -2.0822   -1.2017 C.ar     1 ZINC000624498741   -0.0500
5      C5      0.0297   -2.8164   -2.4828 C.2      1 ZINC000624498741    0.2300
6      N6      0.0419   -4.1289   -2.6408 N.2      1 ZINC000624498741   -0.4700
7      C7      0.0404   -4.3313   -3.9675 C.2      1 ZINC000624498741    0.1800
8      C8      0.0507   -5.6678   -4.6635 C.3      1 ZINC000624498741   -0.0300
9      C9     -1.3882   -6.1331   -4.8955 C.3      1 ZINC000624498741   -0.1300
10     C10    -1.3778   -7.4901   -5.6022 C.3      1 ZINC000624498741    0.0900
11     N11    -2.7556   -7.9357   -5.8243 N.am     1 ZINC000624498741   -0.5000
12     C12    -3.3811   -8.6802   -4.8769 C.2      1 ZINC000624498741    0.1300
13     C13    -4.6536   -9.1037   -5.0596 C.2      1 ZINC000624498741   -0.2300
14     C14    -5.3389   -8.7734   -6.2372 C.2      1 ZINC000624498741   -0.0200
15     C15    -4.7089   -8.0250   -7.1877 C.2      1 ZINC000624498741   -0.2400
16     C16    -3.3891   -7.5975   -6.9634 C.2      1 ZINC000624498741    0.5100
17     O17    -2.8135   -6.9272   -7.8056 O.2      1 ZINC000624498741   -0.5500
18     N18     0.0277   -3.1656   -4.5438 N.2      1 ZINC000624498741   -0.3700
19     O19     0.0163   -2.2814   -3.7138 O.3      1 ZINC000624498741    0.0900
20     C20     0.0408   -2.7824    0.0067 C.ar     1 ZINC000624498741   -0.0200
21     C21     0.0370   -2.0935    1.1999 C.ar     1 ZINC000624498741   -0.1900
22     C22     0.0230   -0.7043    1.2021 C.ar     1 ZINC000624498741    0.1300
23     O23     0.0192   -0.0292    2.3801 O.3      1 ZINC000624498741   -0.3000
24     C24     0.0302   -0.8112    3.5761 C.3      1 ZINC000624498741    0.6000
25     F25     1.1806   -1.6068    3.6025 F        1 ZINC000624498741   -0.1600
26     F26     0.0246    0.0375    4.6883 F        1 ZINC000624498741   -0.1300
27     F27    -1.1038   -1.6298    3.6085 F        1 ZINC000624498741   -0.1600
28     H28     1.0042    1.8801    0.0026 H        1 ZINC000624498741    0.0800
29     H29    -0.5455    1.8639   -0.8728 H        1 ZINC000624498741    0.0800
30     H30    -0.5286    1.8543    0.9071 H        1 ZINC000624498741    0.0800
31     H31    -0.0067   -0.1403   -2.1274 H        1 ZINC000624498741    0.1500
32     H32     0.5613   -5.5744   -5.6220 H        1 ZINC000624498741    0.1000
33     H33     0.5727   -6.3965   -4.0433 H        1 ZINC000624498741    0.1000
34     H34    -1.8989   -6.2266   -3.9370 H        1 ZINC000624498741    0.0800
35     H35    -1.9102   -5.4045   -5.5158 H        1 ZINC000624498741    0.0800
36     H36    -0.8672   -7.3967   -6.5606 H        1 ZINC000624498741    0.1100
37     H37    -0.8558   -8.2188   -4.9819 H        1 ZINC000624498741    0.1000
38     H38    -2.8578   -8.9374   -3.9679 H        1 ZINC000624498741    0.1600
39     H39    -5.1405   -9.6961   -4.2990 H        1 ZINC000624498741    0.1500
40     H40    -6.3543   -9.1081   -6.3902 H        1 ZINC000624498741    0.1400
41     H41    -5.2204   -7.7604   -8.1014 H        1 ZINC000624498741    0.1500
42     H42     0.0554   -3.8623    0.0058 H        1 ZINC000624498741    0.1500
43     H43     0.0487   -2.6342    2.1348 H        1 ZINC000624498741    0.1500
@<TRIPOS>BOND
1     1     2     1
2     1     28    1
3     1     29    1
4     1     30    1
5     2     22    ar
6     2     3     ar
7     3     4     ar
8     3     31    1
9     4     5     1
10    4     20    ar
11    5     19    1
12    5     6     2
13    6     7     1
14    7     8     1
15    7     18    2
16    8     9     1
17    8     32    1
18    8     33    1
19    9     10    1
20    9     34    1
21    9     35    1
22    10    11    1
23    10    36    1
24    10    37    1
25    11    16    am
26    11    12    1
27    12    13    2
28    12    38    1
29    13    14    1
30    13    39    1
31    14    15    2
32    14    40    1
33    15    16    1
34    15    41    1
35    16    17    2
36    18    19    1
37    20    21    ar
38    20    42    1
39    21    22    ar
40    21    43    1
41    22    23    1
42    23    24    1
43    24    25    1
44    24    26    1
45    24    27    1
@<TRIPOS>SUBSTRUCTURE
1   ZINC000624498741 1     RESIDUE    1   A     ZIN   1
@<TRIPOS>MOLECULE
ZINC000281092425
41	42	1	0	0
SMALL
USER_CHARGES
@<TRIPOS>ATOM
1      O1      0.0021   -0.0041    0.0020 O.2      1 ZINC000281092425   -0.1800
2      N2     -0.0144    1.2138    0.0087 N.pl3    1 ZINC000281092425    0.0400
3      O3      1.0320    1.8371    0.0021 O.2      1 ZINC000281092425   -0.1500
4      C4     -1.3061    1.9363    0.0188 C.ar     1 ZINC000281092425   -0.1200
5      C5     -2.4926    1.2283    0.0263 C.ar     1 ZINC000281092425    0.0200
6      C6     -3.7004    1.8990    0.0357 C.ar     1 ZINC000281092425   -0.2200
7      C7     -3.7244    3.2881    0.0381 C.ar     1 ZINC000281092425    0.3000
8      N8     -4.9452    3.9665    0.0480 N.pl3    1 ZINC000281092425   -0.7200
9      C9     -6.2017    3.2132    0.0560 C.3      1 ZINC000281092425    0.1200
10     C10    -7.3808    4.1882    0.0661 C.3      1 ZINC000281092425   -0.0900
11     H11    -7.2791    4.8726    0.9083 H        1 ZINC000281092425    0.0900
12     C12    -7.3949    4.9850   -1.2399 C.3      1 ZINC000281092425    0.0800
13     O13    -8.4238    5.9750   -1.1828 O.3      1 ZINC000281092425   -0.5700
14     C14    -8.6886    3.4055    0.2002 C.3      1 ZINC000281092425   -0.1100
15     H15    -8.8176    2.7222   -0.6393 H        1 ZINC000281092425    0.0900
16     C16    -8.7379    2.6385    1.5497 C.3      1 ZINC000281092425   -0.1600
17     C17   -10.2666    2.5687    1.7927 C.3      1 ZINC000281092425    0.0500
18     O18   -10.7812    3.8182    1.3056 O.3      1 ZINC000281092425   -0.3900
19     C19    -9.8929    4.3641    0.3184 C.3      1 ZINC000281092425    0.0700
20     C20    -2.5331    4.0010    0.0309 C.ar     1 ZINC000281092425   -0.2800
21     C21    -1.3238    3.3243    0.0264 C.ar     1 ZINC000281092425    0.2300
22     O22    -0.1559    4.0192    0.0199 O.3      1 ZINC000281092425   -0.2900
23     C23    -0.2494    5.4451    0.0181 C.3      1 ZINC000281092425    0.4100
24     F24    -0.9433    5.8655   -1.1217 F        1 ZINC000281092425   -0.1900
25     F25    -0.9327    5.8691    1.1629 F        1 ZINC000281092425   -0.1900
26     H26    -2.4758    0.1484    0.0245 H        1 ZINC000281092425    0.1600
27     H27    -4.6264    1.3433    0.0409 H        1 ZINC000281092425    0.1500
28     H28    -4.9612    4.9363    0.0496 H        1 ZINC000281092425    0.4100
29     H29    -6.2556    2.5871   -0.8346 H        1 ZINC000281092425    0.0800
30     H30    -6.2426    2.5843    0.9453 H        1 ZINC000281092425    0.0800
31     H31    -6.4296    5.4718   -1.3790 H        1 ZINC000281092425    0.0500
32     H32    -7.5854    4.3107   -2.0749 H        1 ZINC000281092425    0.0500
33     H33    -8.4907    6.5191   -1.9794 H        1 ZINC000281092425    0.3800
34     H34    -8.3099    1.6409    1.4505 H        1 ZINC000281092425    0.0800
35     H35    -8.2399    3.2008    2.3396 H        1 ZINC000281092425    0.0800
36     H36   -10.7006    1.7381    1.2360 H        1 ZINC000281092425    0.0600
37     H37   -10.4760    2.4623    2.8570 H        1 ZINC000281092425    0.0900
38     H38    -9.5488    5.3488    0.6347 H        1 ZINC000281092425    0.0800
39     H39   -10.4072    4.4410   -0.6396 H        1 ZINC000281092425    0.0700
40     H40    -2.5488    5.0809    0.0328 H        1 ZINC000281092425    0.1500
41     H41     0.7523    5.8749    0.0128 H        1 ZINC000281092425    0.1900
@<TRIPOS>BOND
1     1     2     2
2     2     3     2
3     2     4     1
4     4     21    ar
5     4     5     ar
6     5     6     ar
7     5     26    1
8     6     7     ar
9     6     27    1
10    7     8     1
11    7     20    ar
12    8     9     1
13    8     28    1
14    9     10    1
15    9     29    1
16    9     30    1
17    10    11    1
18    10    12    1
19    10    14    1
20    12    13    1
21    12    31    1
22    12    32    1
23    13    33    1
24    14    15    1
25    14    19    1
26    14    16    1
27    16    17    1
28    16    34    1
29    16    35    1
30    17    18    1
31    17    36    1
32    17    37    1
33    18    19    1
34    19    38    1
35    19    39    1
36    20    21    ar
37    20    40    1
38    21    22    1
39    22    23    1
40    23    24    1
41    23    25    1
42    23    41    1
@<TRIPOS>SUBSTRUCTURE
1   ZINC000281092425 1     RESIDUE    1   A     ZIN   1
@<TRIPOS>MOLECULE
ZINC000981048968
49	52	1	0	0
SMALL
USER_CHARGES
@<TRIPOS>ATOM
1      C1     -0.0184    1.5028    0.0103 C.3      1 ZINC000981048968   -0.0800
2      C2      0.0021   -0.0041    0.0020 C.2      1 ZINC000981048968   -0.0100
3      C3     -1.0805   -0.7968    0.0027 C.2      1 ZINC000981048968   -0.1600
4      C4     -0.5714   -2.1760   -0.0080 C.2      1 ZINC000981048968   -0.2300
5      C5     -1.3643   -3.4183   -0.0122 C.2      1 ZINC000981048968    0.5900
6      O6     -2.5792   -3.3643   -0.0065 O.2      1 ZINC000981048968   -0.5300
7      N7     -0.7429   -4.6143   -0.0223 N.am     1 ZINC000981048968   -0.7300
8      C8     -1.5311   -5.8492   -0.0265 C.3      1 ZINC000981048968    0.1500
9      H9     -2.4388   -5.6990   -0.6110 H        1 ZINC000981048968    0.0900
10     C10    -1.9051   -6.2203    1.4100 C.3      1 ZINC000981048968   -0.1300
11     C11    -2.7282   -7.5100    1.4057 C.3      1 ZINC000981048968   -0.1200
12     C12    -1.9033   -8.6395    0.7854 C.3      1 ZINC000981048968   -0.1100
13     C13    -1.5293   -8.2684   -0.6510 C.3      1 ZINC000981048968    0.1000
14     H14    -2.4370   -8.1181   -1.2355 H        1 ZINC000981048968    0.0500
15     N15    -0.7373   -9.3528   -1.2465 N.3      1 ZINC000981048968   -0.6800
16     C16    -1.6084  -10.3933   -1.8091 C.3      1 ZINC000981048968    0.1500
17     C17    -0.7623  -11.4862   -2.4096 C.2      1 ZINC000981048968    0.1800
18     N18    -0.3308  -11.5398   -3.6341 N.2      1 ZINC000981048968   -0.3800
19     O19     0.3244  -12.5463   -3.8047 O.3      1 ZINC000981048968    0.0800
20     C20     0.3747  -13.2517   -2.6708 C.2      1 ZINC000981048968    0.2100
21     C21     1.0871  -14.5629   -2.4603 C.3      1 ZINC000981048968   -0.0800
22     C22     1.6597  -15.2619   -3.6950 C.3      1 ZINC000981048968   -0.1600
23     C23     2.5993  -14.5903   -2.6914 C.3      1 ZINC000981048968   -0.1500
24     N24    -0.3102  -12.5825   -1.7749 N.2      1 ZINC000981048968   -0.4600
25     C25    -0.7062   -6.9787   -0.6467 C.3      1 ZINC000981048968   -0.1300
26     C26     0.7883   -2.0655   -0.0142 C.2      1 ZINC000981048968    0.0200
27     O27     1.1060   -0.7673   -0.0131 O.3      1 ZINC000981048968   -0.1700
28     H28     1.0042    1.8801    0.0026 H        1 ZINC000981048968    0.0800
29     H29    -0.5455    1.8639   -0.8728 H        1 ZINC000981048968    0.0900
30     H30    -0.5286    1.8543    0.9071 H        1 ZINC000981048968    0.0900
31     H31    -2.1146   -0.4854    0.0100 H        1 ZINC000981048968    0.1600
32     H32     0.2261   -4.6574   -0.0269 H        1 ZINC000981048968    0.4000
33     H33    -0.9974   -6.3706    1.9945 H        1 ZINC000981048968    0.0700
34     H34    -2.4928   -5.4157    1.8518 H        1 ZINC000981048968    0.0700
35     H35    -2.9947   -7.7744    2.4290 H        1 ZINC000981048968    0.0700
36     H36    -3.6359   -7.3598    0.8211 H        1 ZINC000981048968    0.0600
37     H37    -0.9956   -8.7897    1.3699 H        1 ZINC000981048968    0.0700
38     H38    -2.4897   -9.5583    0.7823 H        1 ZINC000981048968    0.0700
39     H39    -0.1029   -8.9956   -1.9452 H        1 ZINC000981048968    0.3500
40     H40    -2.2333  -10.8100   -1.0192 H        1 ZINC000981048968    0.1100
41     H41    -2.2418   -9.9580   -2.5820 H        1 ZINC000981048968    0.0600
42     H42     0.6880  -15.1924   -1.6650 H        1 ZINC000981048968    0.1500
43     H43     1.6373  -16.3515   -3.7122 H        1 ZINC000981048968    0.1200
44     H44     1.5211  -14.7734   -4.6595 H        1 ZINC000981048968    0.1100
45     H45     3.0788  -13.6600   -2.9957 H        1 ZINC000981048968    0.1000
46     H46     3.1950  -15.2382   -2.0484 H        1 ZINC000981048968    0.1200
47     H47    -0.4397   -6.7143   -1.6700 H        1 ZINC000981048968    0.0700
48     H48     0.2015   -7.1289   -0.0622 H        1 ZINC000981048968    0.0800
49     H49     1.4889   -2.8874   -0.0223 H        1 ZINC000981048968    0.2100
@<TRIPOS>BOND
1     1     2     1
2     1     28    1
3     1     29    1
4     1     30    1
5     2     27    1
6     2     3     2
7     3     4     1
8     3     31    1
9     4     5     1
10    4     26    2
11    5     6     2
12    5     7     am
13    7     8     1
14    7     32    1
15    8     9     1
16    8     25    1
17    8     10    1
18    10    11    1
19    10    33    1
20    10    34    1
21    11    12    1
22    11    35    1
23    11    36    1
24    12    13    1
25    12    37    1
26    12    38    1
27    13    14    1
28    13    15    1
29    13    25    1
30    15    16    1
31    15    39    1
32    16    17    1
33    16    40    1
34    16    41    1
35    17    24    1
36    17    18    2
37    18    19    1
38    19    20    1
39    20    21    1
40    20    24    2
41    21    23    1
42    21    22    1
43    21    42    1
44    22    23    1
45    22    43    1
46    22    44    1
47    23    45    1
48    23    46    1
49    25    47    1
50    25    48    1
51    26    27    1
52    26    49    1
@<TRIPOS>SUBSTRUCTURE
1   ZINC000981048968 1     RESIDUE    1   A     ZIN   1
@<TRIPOS>MOLECULE
ZINC000654382142
48	47	1	0	0
SMALL
USER_CHARGES
@<TRIPOS>ATOM
1      C1     -0.0173    1.4248    0.0099 C.3      1 ZINC000654382142    0.0300
2      O2      0.0021   -0.0041    0.0020 O.3      1 ZINC000654382142   -0.3700
3      C3     -1.2953   -0.6030    0.0112 C.3      1 ZINC000654382142    0.0400
4      C4     -1.1538   -2.1264    0.0017 C.3      1 ZINC000654382142    0.1400
5      N5     -0.5155   -2.5654    1.2451 N.am     1 ZINC000654382142   -0.6100
6      C6     -1.3361   -2.8941    2.4133 C.3      1 ZINC000654382142    0.0800
7      C7     -1.7025   -4.3792    2.3776 C.3      1 ZINC000654382142    0.0500
8      H8     -0.7922   -4.9785    2.3928 H        1 ZINC000654382142    0.1400
9      O9     -2.4378   -4.6598    1.1848 O.3      1 ZINC000654382142   -0.5200
10     C10    -2.5596   -4.7225    3.5977 C.3      1 ZINC000654382142    0.4200
11     F11    -3.7280   -3.9533    3.5782 F        1 ZINC000654382142   -0.1800
12     F12    -2.8946   -6.0804    3.5650 F        1 ZINC000654382142   -0.1700
13     F13    -1.8398   -4.4477    4.7654 F        1 ZINC000654382142   -0.1800
14     C14     0.8266   -2.6668    1.3143 C.2      1 ZINC000654382142    0.7100
15     O15     1.5077   -2.3939    0.3447 O.2      1 ZINC000654382142   -0.5600
16     N16     1.4138   -3.0706    2.4582 N.am     1 ZINC000654382142   -0.7500
17     C17     2.8728   -3.1808    2.5334 C.3      1 ZINC000654382142    0.1400
18     C18     3.2770   -3.6556    3.9306 C.3      1 ZINC000654382142   -0.1600
19     C19     4.8006   -3.7707    4.0091 C.3      1 ZINC000654382142    0.1200
20     N20     5.1877   -4.2253    5.3469 N.am     1 ZINC000654382142   -1.0000
21     C21     5.2041   -5.6568    5.6579 C.3      1 ZINC000654382142    0.0900
22     S22     5.6068   -3.1210    6.5076 S.o2     1 ZINC000654382142    2.6100
23     C23     4.0450   -2.7260    7.3415 C.3      1 ZINC000654382142   -0.6800
24     O24     6.4697   -3.8389    7.3790 O.2      1 ZINC000654382142   -0.9500
25     O25     6.0764   -1.9999    5.7715 O.2      1 ZINC000654382142   -0.9500
26     H26     1.0053    1.8021    0.0021 H        1 ZINC000654382142    0.0900
27     H27    -0.5445    1.7859   -0.8732 H        1 ZINC000654382142    0.0400
28     H28    -0.5275    1.7763    0.9067 H        1 ZINC000654382142    0.0400
29     H29    -1.8320   -0.2936    0.9080 H        1 ZINC000654382142    0.0500
30     H30    -1.8490   -0.2840   -0.8718 H        1 ZINC000654382142    0.0600
31     H31    -2.1404   -2.5824   -0.0809 H        1 ZINC000654382142    0.0900
32     H32    -0.5414   -2.4291   -0.8477 H        1 ZINC000654382142    0.1000
33     H33    -0.7753   -2.6800    3.3231 H        1 ZINC000654382142    0.1000
34     H34    -2.2465   -2.2948    2.3981 H        1 ZINC000654382142    0.1000
35     H35    -3.2620   -4.1606    1.1042 H        1 ZINC000654382142    0.3900
36     H36     0.8705   -3.2882    3.2317 H        1 ZINC000654382142    0.3900
37     H37     3.2217   -3.8983    1.7907 H        1 ZINC000654382142    0.0700
38     H38     3.3213   -2.2070    2.3366 H        1 ZINC000654382142    0.0700
39     H39     2.9281   -2.9381    4.6732 H        1 ZINC000654382142    0.0700
40     H40     2.8285   -4.6293    4.1273 H        1 ZINC000654382142    0.0800
41     H41     5.1496   -4.4882    3.2664 H        1 ZINC000654382142    0.0900
42     H42     5.2492   -2.7969    3.8123 H        1 ZINC000654382142    0.1000
43     H43     6.1888   -6.0663    5.4327 H        1 ZINC000654382142    0.0600
44     H44     4.9835   -5.8014    6.7155 H        1 ZINC000654382142    0.0700
45     H45     4.4520   -6.1678    5.0567 H        1 ZINC000654382142    0.0700
46     H46     3.6254   -3.6335    7.7758 H        1 ZINC000654382142    0.1300
47     H47     4.2287   -1.9969    8.1307 H        1 ZINC000654382142    0.1300
48     H48     3.3424   -2.3104    6.6192 H        1 ZINC000654382142    0.1300
@<TRIPOS>BOND
1     1     2     1
2     1     26    1
3     1     27    1
4     1     28    1
5     2     3     1
6     3     4     1
7     3     29    1
8     3     30    1
9     4     5     1
10    4     31    1
11    4     32    1
12    5     6     1
13    5     14    am
14    6     7     1
15    6     33    1
16    6     34    1
17    7     8     1
18    7     9     1
19    7     10    1
20    9     35    1
21    10    11    1
22    10    12    1
23    10    13    1
24    14    15    2
25    14    16    am
26    16    17    1
27    16    36    1
28    17    18    1
29    17    37    1
30    17    38    1
31    18    19    1
32    18    39    1
33    18    40    1
34    19    20    1
35    19    41    1
36    19    42    1
37    20    21    1
38    20    22    am
39    21    43    1
40    21    44    1
41    21    45    1
42    22    23    1
43    22    24    2
44    22    25    2
45    23    46    1
46    23    47    1
47    23    48    1
@<TRIPOS>SUBSTRUCTURE
1   ZINC000654382142 1     RESIDUE    1   A     ZIN   1
@<TRIPOS>MOLECULE
ZINC000854704989
39	41	1	0	0
SMALL
USER_CHARGES
@<TRIPOS>ATOM
1      O1      0.0021   -0.0041    0.0020 O.2      1 ZINC000854704989   -0.5300
2      C2     -0.0144    1.2113    0.0087 C.2      1 ZINC000854704989    0.5700
3      N3      1.1435    1.9010    0.0013 N.am     1 ZINC000854704989   -0.7300
4      C4      2.4220    1.1859   -0.0147 C.3      1 ZINC000854704989    0.2000
5      C5      3.5540    2.1807   -0.0202 C.2      1 ZINC000854704989   -0.0500
6      C6      4.1767    2.7057    1.0616 C.2      1 ZINC000854704989   -0.1700
7      C7      5.1495    3.5718    0.5091 C.2      1 ZINC000854704989    0.0000
8      Br8     6.3873    4.6393    1.4600 Br       1 ZINC000854704989    0.0600
9      N9      5.0235    3.4876   -0.7847 N.2      1 ZINC000854704989   -0.3200
10     O10     4.1467    2.7157   -1.0969 O.3      1 ZINC000854704989    0.1300
11     C11    -1.3047    1.9331    0.0187 C.ar     1 ZINC000854704989   -0.1300
12     C12    -1.3272    3.3285    0.0206 C.ar     1 ZINC000854704989   -0.0900
13     C13    -2.5347    3.9959    0.0295 C.ar     1 ZINC000854704989   -0.1200
14     C14    -3.7214    3.2850    0.0371 C.ar     1 ZINC000854704989   -0.0900
15     C15    -3.7061    1.9012    0.0353 C.ar     1 ZINC000854704989   -0.0800
16     C16    -5.0038    1.1350    0.0435 C.3      1 ZINC000854704989   -0.0800
17     H17    -4.7951    0.0652    0.0408 H        1 ZINC000854704989    0.0900
18     C18    -5.8218    1.5002   -1.1990 C.3      1 ZINC000854704989   -0.1100
19     C19    -7.1701    0.7756   -1.1402 C.3      1 ZINC000854704989   -0.1600
20     C20    -7.8870    1.1527    0.1589 C.3      1 ZINC000854704989    0.0600
21     O21    -7.0592    0.8147    1.2736 O.3      1 ZINC000854704989   -0.3800
22     C22    -5.8037    1.4970    1.2977 C.3      1 ZINC000854704989    0.0700
23     C23    -2.5058    1.2218    0.0206 C.ar     1 ZINC000854704989   -0.0500
24     H24     1.1303    2.8709    0.0067 H        1 ZINC000854704989    0.4000
25     H25     2.4967    0.5553    0.8712 H        1 ZINC000854704989    0.1100
26     H26     2.4797    0.5649   -0.9086 H        1 ZINC000854704989    0.1000
27     H27     3.9769    2.5092    2.1046 H        1 ZINC000854704989    0.1900
28     H28    -0.4014    3.8846    0.0154 H        1 ZINC000854704989    0.1200
29     H29    -2.5535    5.0757    0.0309 H        1 ZINC000854704989    0.1300
30     H30    -4.6640    3.8122    0.0447 H        1 ZINC000854704989    0.1300
31     H31    -5.9874    2.5773   -1.2229 H        1 ZINC000854704989    0.0700
32     H32    -5.2816    1.1931   -2.0945 H        1 ZINC000854704989    0.0700
33     H33    -7.7808    1.0728   -1.9927 H        1 ZINC000854704989    0.0800
34     H34    -7.0061   -0.3016   -1.1663 H        1 ZINC000854704989    0.0700
35     H35    -8.0867    2.2242    0.1660 H        1 ZINC000854704989    0.0500
36     H36    -8.8281    0.6069    0.2263 H        1 ZINC000854704989    0.1000
37     H37    -5.2453    1.1994    2.1852 H        1 ZINC000854704989    0.1000
38     H38    -5.9751    2.5732    1.3197 H        1 ZINC000854704989    0.0500
39     H39    -2.4952    0.1418    0.0188 H        1 ZINC000854704989    0.1400
@<TRIPOS>BOND
1     1     2     2
2     2     3     am
3     2     11    1
4     3     4     1
5     3     24    1
6     4     5     1
7     4     25    1
8     4     26    1
9     5     10    1
10    5     6     2
11    6     7     1
12    6     27    1
13    7     8     1
14    7     9     2
15    9     10    1
16    11    23    ar
17    11    12    ar
18    12    13    ar
19    12    28    1
20    13    14    ar
21    13    29    1
22    14    15    ar
23    14    30    1
24    15    16    1
25    15    23    ar
26    16    17    1
27    16    22    1
28    16    18    1
29    18    19    1
30    18    31    1
31    18    32    1
32    19    20    1
33    19    33    1
34    19    34    1
35    20    21    1
36    20    35    1
37    20    36    1
38    21    22    1
39    22    37    1
40    22    38    1
41    23    39    1
@<TRIPOS>SUBSTRUCTURE
1   ZINC000854704989 1     RESIDUE    1   A     ZIN   1
@<TRIPOS>MOLECULE
ZINC000431691749
52	54	1	0	0
SMALL
USER_CHARGES
@<TRIPOS>ATOM
1      C1      4.0281    1.1575    0.9605 C.3      1 ZINC000431691749   -0.1200
2      C2      2.8581    0.2620    0.6440 C.ar     1 ZINC000431691749   -0.0800
3      C3      2.3008    0.2741   -0.6207 C.ar     1 ZINC000431691749   -0.1200
4      C4      1.2274   -0.5474   -0.9111 C.ar     1 ZINC000431691749   -0.1100
5      C5      0.7119   -1.3813    0.0632 C.ar     1 ZINC000431691749   -0.1100
6      C6      1.2699   -1.3941    1.3281 C.ar     1 ZINC000431691749   -0.0800
7      C7      0.7076   -2.3030    2.3906 C.3      1 ZINC000431691749    0.2000
8      H8      0.6992   -1.7814    3.3476 H        1 ZINC000431691749    0.1100
9      N9     -0.6599   -2.6864    2.0314 N.am     1 ZINC000431691749   -0.5700
10     C10    -0.9687   -3.5652    1.0574 C.2      1 ZINC000431691749    0.5200
11     O11    -0.1966   -4.1648    0.3404 O.2      1 ZINC000431691749   -0.4400
12     C12    -2.4822   -3.6487    1.0455 C.3      1 ZINC000431691749    0.0900
13     H13    -2.8767   -3.3222    0.0833 H        1 ZINC000431691749    0.1300
14     C14    -2.9452   -5.0727    1.3601 C.3      1 ZINC000431691749   -0.1500
15     N15    -2.8886   -2.7201    2.1145 N.am     1 ZINC000431691749   -0.6000
16     C16    -4.2584   -2.4145    2.5345 C.3      1 ZINC000431691749    0.1500
17     C17    -4.7873   -3.3472    3.6369 C.3      1 ZINC000431691749   -0.1600
18     C18    -4.1977   -2.3533    4.6514 C.3      1 ZINC000431691749   -0.1400
19     C19    -4.3474   -1.2760    3.5644 C.3      1 ZINC000431691749   -0.1500
20     C20    -1.7564   -2.2118    2.6335 C.2      1 ZINC000431691749    0.7000
21     O21    -1.7324   -1.4058    3.5429 O.2      1 ZINC000431691749   -0.5300
22     C22     1.5767   -3.5573    2.5010 C.3      1 ZINC000431691749   -0.0700
23     C23     2.8266   -3.2409    3.3247 C.3      1 ZINC000431691749   -0.1400
24     C24     0.7817   -4.6698    3.1874 C.3      1 ZINC000431691749   -0.1400
25     C25     1.9909   -4.0156    1.1012 C.3      1 ZINC000431691749   -0.1600
26     C26     2.3457   -0.5759    1.6171 C.ar     1 ZINC000431691749   -0.1100
27     H27     4.9575    0.6326    0.7398 H        1 ZINC000431691749    0.0700
28     H28     3.9683    2.0613    0.3541 H        1 ZINC000431691749    0.0700
29     H29     4.0046    1.4263    2.0166 H        1 ZINC000431691749    0.0700
30     H30     2.7036    0.9257   -1.3821 H        1 ZINC000431691749    0.1200
31     H31     0.7915   -0.5374   -1.8992 H        1 ZINC000431691749    0.1200
32     H32    -0.1270   -2.0226   -0.1634 H        1 ZINC000431691749    0.1100
33     H33    -2.5617   -5.3723    2.3354 H        1 ZINC000431691749    0.0700
34     H34    -4.0347   -5.1061    1.3722 H        1 ZINC000431691749    0.0800
35     H35    -2.5693   -5.7539    0.5968 H        1 ZINC000431691749    0.0800
36     H36    -4.9427   -2.2976    1.6941 H        1 ZINC000431691749    0.1000
37     H37    -5.8749   -3.4113    3.6699 H        1 ZINC000431691749    0.0900
38     H38    -4.3040   -4.3241    3.6512 H        1 ZINC000431691749    0.0700
39     H39    -4.8339   -2.1878    5.5208 H        1 ZINC000431691749    0.0700
40     H40    -3.1619   -2.5640    4.9177 H        1 ZINC000431691749    0.0800
41     H41    -3.5091   -0.5807    3.5202 H        1 ZINC000431691749    0.1000
42     H42    -5.3148   -0.7738    3.5776 H        1 ZINC000431691749    0.0900
43     H43     2.5315   -2.9144    4.3219 H        1 ZINC000431691749    0.0600
44     H44     3.4457   -4.1345    3.4034 H        1 ZINC000431691749    0.0600
45     H45     3.3930   -2.4483    2.8357 H        1 ZINC000431691749    0.0600
46     H46    -0.1088   -4.8952    2.6006 H        1 ZINC000431691749    0.0500
47     H47     1.4008   -5.5634    3.2661 H        1 ZINC000431691749    0.0600
48     H48     0.4866   -4.3433    4.1846 H        1 ZINC000431691749    0.0500
49     H49     1.9694   -3.1655    0.4194 H        1 ZINC000431691749    0.0700
50     H50     2.9996   -4.4270    1.1373 H        1 ZINC000431691749    0.0400
51     H51     1.2987   -4.7808    0.7498 H        1 ZINC000431691749    0.1000
52     H52     2.7817   -0.5860    2.6052 H        1 ZINC000431691749    0.1300
@<TRIPOS>BOND
1     1     2     1
2     1     27    1
3     1     28    1
4     1     29    1
5     2     26    ar
6     2     3     ar
7     3     4     ar
8     3     30    1
9     4     5     ar
10    4     31    1
11    5     6     ar
12    5     32    1
13    6     7     1
14    6     26    ar
15    7     8     1
16    7     9     1
17    7     22    1
18    9     20    am
19    9     10    am
20    10    11    2
21    10    12    1
22    12    13    1
23    12    14    1
24    12    15    1
25    14    33    1
26    14    34    1
27    14    35    1
28    15    16    1
29    15    20    am
30    16    19    1
31    16    17    1
32    16    36    1
33    17    18    1
34    17    37    1
35    17    38    1
36    18    19    1
37    18    39    1
38    18    40    1
39    19    41    1
40    19    42    1
41    20    21    2
42    22    23    1
43    22    24    1
44    22    25    1
45    23    43    1
46    23    44    1
47    23    45    1
48    24    46    1
49    24    47    1
50    24    48    1
51    25    49    1
52    25    50    1
53    25    51    1
54    26    52    1
@<TRIPOS>SUBSTRUCTURE
1   ZINC000431691749 1     RESIDUE    1   A     ZIN   1
@<TRIPOS>MOLECULE
ZINC000188380122
46	49	1	0	0
SMALL
USER_CHARGES
@<TRIPOS>ATOM
1      O1      0.0021   -0.0041    0.0020 O.2      1 ZINC000188380122   -0.5200
2      C2     -0.0144    1.2086    0.0087 C.2      1 ZINC000188380122    0.5200
3      C3      1.2803    1.9798    0.0005 C.3      1 ZINC000188380122   -0.0700
4      C4      2.4389    1.0162   -0.0158 C.2      1 ZINC000188380122    0.0900
5      C5      3.3943    1.0700   -0.9499 C.2      1 ZINC000188380122   -0.2400
6      S6      4.5573   -0.2134   -0.6232 S.3      1 ZINC000188380122    0.1000
7      C7      3.6115   -0.7067    0.7790 C.2      1 ZINC000188380122    0.1100
8      C8      3.9436   -1.8248    1.6878 C.ar     1 ZINC000188380122   -0.0200
9      C9      3.1096   -2.1225    2.7661 C.ar     1 ZINC000188380122   -0.0400
10     C10     3.4249   -3.1675    3.6103 C.ar     1 ZINC000188380122   -0.1200
11     C11     4.5652   -3.9190    3.3896 C.ar     1 ZINC000188380122   -0.0600
12     C12     5.3964   -3.6288    2.3220 C.ar     1 ZINC000188380122   -0.1800
13     C13     6.6363   -4.4531    2.0889 C.3      1 ZINC000188380122    0.5100
14     F14     6.7305   -5.4425    3.0735 F        1 ZINC000188380122   -0.1700
15     F15     6.5659   -5.0551    0.8280 F        1 ZINC000188380122   -0.1700
16     F16     7.7636   -3.6267    2.1488 F        1 ZINC000188380122   -0.1700
17     C17     5.0895   -2.5904    1.4674 C.ar     1 ZINC000188380122   -0.0500
18     N18     2.5759    0.0751    0.8896 N.2      1 ZINC000188380122   -0.4300
19     N19    -1.1906    1.8666    0.0178 N.am     1 ZINC000188380122   -0.7200
20     C20    -2.4492    1.1169    0.0197 C.3      1 ZINC000188380122    0.1300
21     H21    -2.3468    0.1179    0.4435 H        1 ZINC000188380122    0.1200
22     C22    -3.1845    1.1415   -1.3321 C.3      1 ZINC000188380122   -0.1800
23     C23    -4.4784    1.2692   -0.5196 C.3      1 ZINC000188380122    0.0900
24     H24    -4.8647    0.2948   -0.2204 H        1 ZINC000188380122    0.1200
25     O25    -5.4813    2.0635   -1.1015 O.3      1 ZINC000188380122   -0.3700
26     C26    -5.2808    3.4593   -1.2255 C.3      1 ZINC000188380122    0.0700
27     C27    -4.7755    4.0561    0.0872 C.3      1 ZINC000188380122   -0.1600
28     C28    -3.4319    3.4074    0.4342 C.3      1 ZINC000188380122   -0.1100
29     C29    -3.6416    1.9115    0.5901 C.3      1 ZINC000188380122   -0.1500
30     H30    -3.9334    1.6190    1.5988 H        1 ZINC000188380122    0.0900
31     H31     1.3211    2.6120   -0.8866 H        1 ZINC000188380122    0.1100
32     H32     1.3381    2.6024    0.8933 H        1 ZINC000188380122    0.1100
33     H33     3.4444    1.7776   -1.7642 H        1 ZINC000188380122    0.1800
34     H34     2.2195   -1.5361    2.9399 H        1 ZINC000188380122    0.1500
35     H35     2.7803   -3.3991    4.4452 H        1 ZINC000188380122    0.1400
36     H36     4.8079   -4.7354    4.0536 H        1 ZINC000188380122    0.1500
37     H37     5.7390   -2.3650    0.6345 H        1 ZINC000188380122    0.1400
38     H38    -1.2037    2.8365    0.0232 H        1 ZINC000188380122    0.4000
39     H39    -2.9589    2.0193   -1.9378 H        1 ZINC000188380122    0.0900
40     H40    -3.1075    0.2082   -1.8899 H        1 ZINC000188380122    0.0800
41     H41    -4.5482    3.6478   -2.0102 H        1 ZINC000188380122    0.0500
42     H42    -6.2240    3.9342   -1.4954 H        1 ZINC000188380122    0.1000
43     H43    -4.6437    5.1321   -0.0269 H        1 ZINC000188380122    0.0800
44     H44    -5.4947    3.8553    0.8813 H        1 ZINC000188380122    0.0800
45     H45    -2.7177    3.5951   -0.3675 H        1 ZINC000188380122    0.0700
46     H46    -3.0547    3.8250    1.3676 H        1 ZINC000188380122    0.0800
@<TRIPOS>BOND
1     1     2     2
2     2     3     1
3     2     19    am
4     3     4     1
5     3     31    1
6     3     32    1
7     4     18    1
8     4     5     2
9     5     6     1
10    5     33    1
11    6     7     1
12    7     8     1
13    7     18    2
14    8     17    ar
15    8     9     ar
16    9     10    ar
17    9     34    1
18    10    11    ar
19    10    35    1
20    11    12    ar
21    11    36    1
22    12    13    1
23    12    17    ar
24    13    14    1
25    13    15    1
26    13    16    1
27    17    37    1
28    19    20    1
29    19    38    1
30    20    21    1
31    20    29    1
32    20    22    1
33    22    23    1
34    22    39    1
35    22    40    1
36    23    24    1
37    23    29    1
38    23    25    1
39    25    26    1
40    26    27    1
41    26    41    1
42    26    42    1
43    27    28    1
44    27    43    1
45    27    44    1
46    28    29    1
47    28    45    1
48    28    46    1
49    29    30    1
@<TRIPOS>SUBSTRUCTURE
1   ZINC000188380122 1     RESIDUE    1   A     ZIN   1
@<TRIPOS>MOLECULE
ZINC001456607258
50	52	1	0	0
SMALL
USER_CHARGES
@<TRIPOS>ATOM
1      C1      0.2064   -1.8655   -1.2060 C.3      1 ZINC001456607258   -0.1600
2      C2      0.0122   -0.7327   -0.1960 C.3      1 ZINC001456607258   -0.1100
3      C3     -1.4805   -0.4306   -0.0493 C.3      1 ZINC001456607258   -0.1000
4      H4     -1.6175    0.3915    0.6531 H        1 ZINC001456607258    0.0900
5      C5     -2.2035   -1.6737    0.4732 C.3      1 ZINC001456607258   -0.0700
6      C6     -1.7213   -1.9868    1.8662 C.ar     1 ZINC001456607258   -0.0800
7      C7     -0.6332   -2.8193    2.0502 C.ar     1 ZINC001456607258   -0.1200
8      C8     -0.1909   -3.1065    3.3280 C.ar     1 ZINC001456607258   -0.1200
9      C9     -0.8365   -2.5609    4.4218 C.ar     1 ZINC001456607258   -0.1200
10     C10    -1.9240   -1.7277    4.2378 C.ar     1 ZINC001456607258   -0.1200
11     C11    -2.3636   -1.4370    2.9599 C.ar     1 ZINC001456607258   -0.1200
12     C12    -2.0492   -0.0454   -1.3907 C.2      1 ZINC001456607258    0.5200
13     O13    -2.5661   -0.8870   -2.0945 O.2      1 ZINC001456607258   -0.5300
14     N14    -1.9834    1.2344   -1.8082 N.am     1 ZINC001456607258   -0.7300
15     C15    -2.4518    1.5924   -3.1493 C.3      1 ZINC001456607258    0.1300
16     C16    -2.2672    3.0951   -3.3697 C.3      1 ZINC001456607258   -0.1400
17     C17    -0.8860    3.4737   -3.9343 C.3      1 ZINC001456607258    0.1100
18     N18    -1.6130    4.4125   -4.8108 N.am     1 ZINC001456607258   -0.6500
19     C19    -1.2865    5.5532   -5.4502 C.2      1 ZINC001456607258    0.6100
20     O20    -0.1612    6.0043   -5.3527 O.2      1 ZINC001456607258   -0.5400
21     C21    -2.2923    6.2532   -6.2669 C.2      1 ZINC001456607258   -0.2300
22     C22    -3.5922    5.8789   -6.4691 C.2      1 ZINC001456607258    0.0400
23     N23    -4.1748    6.7855   -7.2764 N.pl3    1 ZINC001456607258   -0.5500
24     C24    -3.2820    7.7599   -7.6161 C.2      1 ZINC001456607258   -0.0200
25     C25    -2.1043    7.4962   -7.0227 C.2      1 ZINC001456607258   -0.1400
26     C26    -2.8409    3.6007   -4.7058 C.3      1 ZINC001456607258    0.1100
27     H27     1.2716   -2.0191   -1.3793 H        1 ZINC001456607258    0.0600
28     H28    -0.2336   -2.7821   -0.8130 H        1 ZINC001456607258    0.0600
29     H29    -0.2802   -1.6024   -2.1451 H        1 ZINC001456607258    0.0600
30     H30     0.4187   -1.0333    0.7697 H        1 ZINC001456607258    0.0800
31     H31     0.5308    0.1596   -0.5467 H        1 ZINC001456607258    0.0700
32     H32    -3.2773   -1.4877    0.4936 H        1 ZINC001456607258    0.0800
33     H33    -1.9934   -2.5187   -0.1825 H        1 ZINC001456607258    0.0900
34     H34    -0.1288   -3.2456    1.1956 H        1 ZINC001456607258    0.1200
35     H35     0.6588   -3.7575    3.4717 H        1 ZINC001456607258    0.1200
36     H36    -0.4914   -2.7859    5.4201 H        1 ZINC001456607258    0.1200
37     H37    -2.4286   -1.3017    5.0924 H        1 ZINC001456607258    0.1200
38     H38    -3.2133   -0.7860    2.8161 H        1 ZINC001456607258    0.1200
39     H39    -1.6259    1.9184   -1.2206 H        1 ZINC001456607258    0.4000
40     H40    -1.8762    1.0426   -3.8940 H        1 ZINC001456607258    0.0700
41     H41    -3.5073    1.3380   -3.2455 H        1 ZINC001456607258    0.0800
42     H42    -2.5697    3.6912   -2.5087 H        1 ZINC001456607258    0.1100
43     H43    -0.2346    3.9634   -3.2104 H        1 ZINC001456607258    0.0800
44     H44    -0.3936    2.6630   -4.4713 H        1 ZINC001456607258    0.0900
45     H45    -4.0700    5.0046   -6.0523 H        1 ZINC001456607258    0.1700
46     H46    -5.0973    6.7507   -7.5743 H        1 ZINC001456607258    0.4200
47     H47    -3.4888    8.6071   -8.2531 H        1 ZINC001456607258    0.1700
48     H48    -1.1982    8.0795   -7.0946 H        1 ZINC001456607258    0.1500
49     H49    -2.9228    2.8272   -5.4695 H        1 ZINC001456607258    0.0900
50     H50    -3.7504    4.1917   -4.5979 H        1 ZINC001456607258    0.0900
@<TRIPOS>BOND
1     1     2     1
2     1     27    1
3     1     28    1
4     1     29    1
5     2     3     1
6     2     30    1
7     2     31    1
8     3     4     1
9     3     5     1
10    3     12    1
11    5     6     1
12    5     32    1
13    5     33    1
14    6     11    ar
15    6     7     ar
16    7     8     ar
17    7     34    1
18    8     9     ar
19    8     35    1
20    9     10    ar
21    9     36    1
22    10    11    ar
23    10    37    1
24    11    38    1
25    12    13    2
26    12    14    am
27    14    15    1
28    14    39    1
29    15    16    1
30    15    40    1
31    15    41    1
32    16    26    1
33    16    17    1
34    16    42    1
35    17    18    1
36    17    43    1
37    17    44    1
38    18    19    am
39    18    26    1
40    19    20    2
41    19    21    1
42    21    25    1
43    21    22    2
44    22    23    1
45    22    45    1
46    23    24    1
47    23    46    1
48    24    25    2
49    24    47    1
50    25    48    1
51    26    49    1
52    26    50    1
@<TRIPOS>SUBSTRUCTURE
1   ZINC001456607258 1     RESIDUE    1   A     ZIN   1
@<TRIPOS>MOLECULE
ZINC000285228948
45	46	0	0	0
SMALL
USER_CHARGES
@<TRIPOS>ATOM
1 C1        0.1412     1.3333    -0.4495 C.3    1 <0>      -0.1600
2 C2       -0.0226    -0.1474    -0.1006 C.3    1 <0>       0.1800
3 H3        0.5340    -0.3699     0.8098 H      1 <0>       0.1100
4 C4        0.5061    -0.9914    -1.2316 C.ar   1 <0>      -0.0900
5 C5       -0.1124    -0.9565    -2.4675 C.ar   1 <0>      -0.1000
6 C6        0.3720    -1.7303    -3.5051 C.ar   1 <0>      -0.1100
7 C7        1.4761    -2.5401    -3.3068 C.ar   1 <0>      -0.0300
8 Cl8       2.0855    -3.5120    -4.6098 Cl     1 <0>      -0.0700
9 C9        2.0947    -2.5747    -2.0697 C.ar   1 <0>      -0.1100
10 C10       1.6128    -1.7960    -1.0344 C.ar   1 <0>      -0.0900
11 N11      -1.4415    -0.4455     0.1093 N.am   1 <0>      -0.6100
12 C12      -2.4221    -0.1061    -0.9248 C.3    1 <0>       0.0600
13 C13      -1.8447    -1.0321     1.2538 C.2    1 <0>       0.5200
14 O14      -1.0328    -1.3132     2.1099 O.2    1 <0>      -0.5200
15 C15      -3.3042    -1.3389     1.4698 C.3    1 <0>       0.0300
16 N16      -3.4824    -1.9718     2.7834 N.3    1 <0>      -0.4900
17 C17      -2.5775    -3.1393     2.9388 C.3    1 <0>       0.0400
18 C18      -3.2445    -3.9563     4.0738 C.3    1 <0>      -0.1400
19 C19      -4.7531    -3.7826     3.7841 C.3    1 <0>       0.1100
20 O20      -5.2500    -4.9047     3.0519 O.3    1 <0>      -0.5400
21 C21      -5.5178    -3.6197     5.0724 C.2    1 <0>       0.5000
22 N22      -5.9426    -4.7070     5.7460 N.am   1 <0>      -0.8500
23 O23      -5.7509    -2.5101     5.5031 O.2    1 <0>      -0.5200
24 C24      -4.8547    -2.5024     2.9343 C.3    1 <0>       0.0600
25 H25       1.1969     1.5551    -0.6057 H      1 <0>       0.0700
26 H26      -0.4154     1.5558    -1.3599 H      1 <0>       0.0600
27 H27      -0.2412     1.9438     0.3685 H      1 <0>       0.0700
28 H28      -0.9745    -0.3246    -2.6220 H      1 <0>       0.1400
29 H29      -0.1115    -1.7032    -4.4705 H      1 <0>       0.1300
30 H30       2.9564    -3.2068    -1.9142 H      1 <0>       0.1400
31 H31       2.0958    -1.8227    -0.0688 H      1 <0>       0.1300
32 H32      -2.5032    -0.9305    -1.6332 H      1 <0>       0.0600
33 H33      -3.3925     0.0713    -0.4611 H      1 <0>       0.0800
34 H34      -2.1003     0.7935    -1.4494 H      1 <0>       0.0800
35 H35      -3.8795    -0.4138     1.4311 H      1 <0>       0.1100
36 H36      -3.6524    -2.0161     0.6899 H      1 <0>       0.0700
37 H37      -2.5384    -3.7211     2.0179 H      1 <0>       0.0400
38 H38      -1.5791    -2.8157     3.2333 H      1 <0>       0.1200
39 H39      -2.9584    -5.0063     4.0128 H      1 <0>       0.0900
40 H40      -2.9888    -3.5418     5.0490 H      1 <0>       0.0900
41 H41      -5.1711    -5.7466     3.5210 H      1 <0>       0.3800
42 H42      -5.7562    -5.5944     5.4016 H      1 <0>       0.4000
43 H43      -6.4348    -4.6021     6.5753 H      1 <0>       0.4100
44 H44      -5.4827    -1.7694     3.4407 H      1 <0>       0.1100
45 H45      -5.2712    -2.7388     1.9551 H      1 <0>       0.0700
@<TRIPOS>BOND
1    1    2 1
2    1   25 1
3    1   26 1
4    1   27 1
5    2    3 1
6    2    4 1
7    2   11 1
8    4   10 ar
9    4    5 ar
10    5    6 ar
11    5   28 1
12    6    7 ar
13    6   29 1
14    7    8 1
15    7    9 ar
16    9   10 ar
17    9   30 1
18   10   31 1
19   11   12 1
20   11   13 am
21   12   32 1
22   12   33 1
23   12   34 1
24   13   14 2
25   13   15 1
26   15   16 1
27   15   35 1
28   15   36 1
29   16   24 1
30   16   17 1
31   17   18 1
32   17   37 1
33   17   38 1
34   18   19 1
35   18   39 1
36   18   40 1
37   19   20 1
38   19   21 1
39   19   24 1
40   20   41 1
41   21   22 am
42   21   23 2
43   22   42 1
44   22   43 1
45   24   44 1
46   24   45 1
@<TRIPOS>MOLECULE
ZINC000435005159
57	59	1	0	0
SMALL
USER_CHARGES
@<TRIPOS>ATOM
1      O1      0.0021   -0.0041    0.0020 O.2      1 ZINC000435005159   -0.5300
2      C2     -0.0144    1.2086    0.0087 C.2      1 ZINC000435005159    0.5200
3      C3      1.2803    1.9798    0.0005 C.3      1 ZINC000435005159   -0.1400
4      C4      2.4566    1.0015   -0.0160 C.3      1 ZINC000435005159   -0.1200
5      C5      3.7710    1.7845   -0.0244 C.3      1 ZINC000435005159    0.1200
6      N6      4.8973    0.8477   -0.0401 N.am     1 ZINC000435005159   -0.7200
7      C7      6.1617    1.3142   -0.0497 C.2      1 ZINC000435005159    0.5600
8      O8      6.3676    2.5122   -0.0452 O.2      1 ZINC000435005159   -0.5300
9      C9      7.2983    0.3689   -0.0656 C.ar     1 ZINC000435005159   -0.1900
10     C10     8.6163    0.8405   -0.0698 C.ar     1 ZINC000435005159   -0.0200
11     C11     9.6444   -0.0859   -0.0844 C.ar     1 ZINC000435005159   -0.1800
12     C12     9.3399   -1.4350   -0.0943 C.ar     1 ZINC000435005159    0.1200
13     N13     8.0875   -1.8507   -0.0905 N.ar     1 ZINC000435005159   -0.4900
14     C14     7.0754   -1.0088   -0.0709 C.ar     1 ZINC000435005159    0.1400
15     N15    -1.1906    1.8666    0.0178 N.am     1 ZINC000435005159   -0.7300
16     C16    -2.4492    1.1169    0.0197 C.3      1 ZINC000435005159    0.1900
17     H17    -2.3279    0.2045    0.6037 H        1 ZINC000435005159    0.1000
18     C18    -3.5535    1.9758    0.6393 C.3      1 ZINC000435005159   -0.1200
19     C19    -3.2333    2.2328    2.1131 C.3      1 ZINC000435005159   -0.0800
20     C20    -4.3209    3.0788    2.7234 C.ar     1 ZINC000435005159   -0.0800
21     C21    -4.2222    4.4574    2.6951 C.ar     1 ZINC000435005159   -0.1200
22     C22    -5.2199    5.2334    3.2548 C.ar     1 ZINC000435005159   -0.1200
23     C23    -6.3165    4.6309    3.8425 C.ar     1 ZINC000435005159   -0.1200
24     C24    -6.4156    3.2524    3.8700 C.ar     1 ZINC000435005159   -0.1200
25     C25    -5.4200    2.4764    3.3064 C.ar     1 ZINC000435005159   -0.1200
26     C26    -2.8242    0.7611   -1.3959 C.ar     1 ZINC000435005159   -0.1000
27     C27    -2.6284    1.6761   -2.4134 C.ar     1 ZINC000435005159   -0.1100
28     C28    -2.9723    1.3498   -3.7119 C.ar     1 ZINC000435005159   -0.1200
29     C29    -3.5116    0.1083   -3.9930 C.ar     1 ZINC000435005159   -0.1200
30     C30    -3.7065   -0.8069   -2.9755 C.ar     1 ZINC000435005159   -0.1200
31     C31    -3.3586   -0.4822   -1.6777 C.ar     1 ZINC000435005159   -0.1000
32     H32     1.3211    2.6120   -0.8866 H        1 ZINC000435005159    0.1000
33     H33     1.3381    2.6024    0.8933 H        1 ZINC000435005159    0.1000
34     H34     2.4158    0.3693    0.8710 H        1 ZINC000435005159    0.0800
35     H35     2.3988    0.3789   -0.9088 H        1 ZINC000435005159    0.0800
36     H36     3.8118    2.4166   -0.9114 H        1 ZINC000435005159    0.0700
37     H37     3.8288    2.4070    0.8685 H        1 ZINC000435005159    0.0700
38     H38     4.7330   -0.1083   -0.0437 H        1 ZINC000435005159    0.4000
39     H39     8.8255    1.9001   -0.0622 H        1 ZINC000435005159    0.1500
40     H40    10.6736    0.2412   -0.0884 H        1 ZINC000435005159    0.1500
41     H41    10.1402   -2.1601   -0.1056 H        1 ZINC000435005159    0.1600
42     H42     6.0640   -1.3875   -0.0681 H        1 ZINC000435005159    0.1600
43     H43    -1.2037    2.8365    0.0232 H        1 ZINC000435005159    0.4000
44     H44    -3.6146    2.9265    0.1096 H        1 ZINC000435005159    0.0700
45     H45    -4.5072    1.4539    0.5603 H        1 ZINC000435005159    0.0800
46     H46    -3.1721    1.2822    2.6428 H        1 ZINC000435005159    0.0700
47     H47    -2.2796    2.7548    2.1921 H        1 ZINC000435005159    0.0700
48     H48    -3.3654    4.9281    2.2360 H        1 ZINC000435005159    0.1200
49     H49    -5.1424    6.3104    3.2334 H        1 ZINC000435005159    0.1200
50     H50    -7.0956    5.2372    4.2804 H        1 ZINC000435005159    0.1200
51     H51    -7.2722    2.7816    4.3294 H        1 ZINC000435005159    0.1200
52     H52    -5.4975    1.3994    3.3279 H        1 ZINC000435005159    0.1200
53     H53    -2.2071    2.6460   -2.1939 H        1 ZINC000435005159    0.1200
54     H54    -2.8201    2.0649   -4.5068 H        1 ZINC000435005159    0.1200
55     H55    -3.7809   -0.1463   -5.0073 H        1 ZINC000435005159    0.1200
56     H56    -4.1281   -1.7767   -3.1950 H        1 ZINC000435005159    0.1200
57     H57    -3.5108   -1.1973   -0.8828 H        1 ZINC000435005159    0.1200
@<TRIPOS>BOND
1     1     2     2
2     2     3     1
3     2     15    am
4     3     4     1
5     3     32    1
6     3     33    1
7     4     5     1
8     4     34    1
9     4     35    1
10    5     6     1
11    5     36    1
12    5     37    1
13    6     7     am
14    6     38    1
15    7     8     2
16    7     9     1
17    9     14    ar
18    9     10    ar
19    10    11    ar
20    10    39    1
21    11    12    ar
22    11    40    1
23    12    13    ar
24    12    41    1
25    13    14    ar
26    14    42    1
27    15    16    1
28    15    43    1
29    16    17    1
30    16    18    1
31    16    26    1
32    18    19    1
33    18    44    1
34    18    45    1
35    19    20    1
36    19    46    1
37    19    47    1
38    20    25    ar
39    20    21    ar
40    21    22    ar
41    21    48    1
42    22    23    ar
43    22    49    1
44    23    24    ar
45    23    50    1
46    24    25    ar
47    24    51    1
48    25    52    1
49    26    31    ar
50    26    27    ar
51    27    28    ar
52    27    53    1
53    28    29    ar
54    28    54    1
55    29    30    ar
56    29    55    1
57    30    31    ar
58    30    56    1
59    31    57    1
@<TRIPOS>SUBSTRUCTURE
1   ZINC000435005159 1     RESIDUE    1   A     ZIN   1
@<TRIPOS>MOLECULE
ZINC000618094467
57	59	1	0	0
SMALL
USER_CHARGES
@<TRIPOS>ATOM
1      C1      0.5752    1.5457   -0.4104 C.3      1 ZINC000618094467   -0.1500
2      C2      0.6130    0.0165   -0.3796 C.3      1 ZINC000618094467   -0.1000
3      C3      0.8546   -0.4590    1.0544 C.3      1 ZINC000618094467   -0.1100
4      H4      1.7603    0.0061    1.4437 H        1 ZINC000618094467    0.1000
5      C5     -0.3372   -0.0658    1.9297 C.3      1 ZINC000618094467   -0.1500
6      C6      1.0141   -1.9574    1.0667 C.2      1 ZINC000618094467    0.5200
7      O7      0.7356   -2.6050    0.0798 O.2      1 ZINC000618094467   -0.5000
8      N8      1.4664   -2.5780    2.1743 N.am     1 ZINC000618094467   -0.6100
9      C9      1.6903   -1.8420    3.4232 C.3      1 ZINC000618094467    0.1400
10     C10     1.1368   -2.6304    4.5835 C.ar     1 ZINC000618094467   -0.1000
11     C11     1.0365   -1.9914    5.8115 C.ar     1 ZINC000618094467   -0.1100
12     C12     0.5473   -2.6635    6.9130 C.ar     1 ZINC000618094467   -0.1200
13     C13     0.1555   -3.9835    6.7921 C.ar     1 ZINC000618094467   -0.1100
14     C14     0.2509   -4.6184    5.5711 C.ar     1 ZINC000618094467   -0.1200
15     C15     0.7374   -3.9424    4.4590 C.ar     1 ZINC000618094467   -0.0600
16     C16     0.7871   -4.6912    3.1533 C.3      1 ZINC000618094467   -0.0800
17     C17     1.7495   -4.0227    2.1809 C.3      1 ZINC000618094467    0.1200
18     H18     2.7767   -4.1909    2.5045 H        1 ZINC000618094467    0.1000
19     C19     1.5517   -4.5883    0.7981 C.2      1 ZINC000618094467    0.5500
20     O20     0.5051   -5.1279    0.5076 O.2      1 ZINC000618094467   -0.5200
21     N21     2.5379   -4.4945   -0.1157 N.am     1 ZINC000618094467   -0.6100
22     C22     3.8518   -3.9580    0.2618 C.3      1 ZINC000618094467    0.1200
23     C23     4.9229   -5.0114   -0.0483 C.3      1 ZINC000618094467   -0.1600
24     H24     5.9134   -4.5656    0.0433 H        1 ZINC000618094467    0.1100
25     C25     4.7925   -6.1817    0.9286 C.3      1 ZINC000618094467   -0.1400
26     C26     4.7144   -5.5029   -1.4639 C.2      1 ZINC000618094467    0.3700
27     O27     5.6212   -5.4944   -2.2614 O.2      1 ZINC000618094467   -0.4400
28     C28     3.3425   -6.0059   -1.8560 C.3      1 ZINC000618094467   -0.1600
29     H29     3.1179   -6.9225   -1.3106 H        1 ZINC000618094467    0.1100
30     C30     3.3048   -6.2796   -3.3608 C.3      1 ZINC000618094467   -0.1400
31     C31     2.3129   -4.9332   -1.4991 C.3      1 ZINC000618094467    0.1400
32     H32     1.5263    1.9399   -0.0522 H        1 ZINC000618094467    0.0500
33     H33     0.4031    1.8844   -1.4320 H        1 ZINC000618094467    0.0600
34     H34    -0.2306    1.9022    0.2313 H        1 ZINC000618094467    0.0600
35     H35    -0.3381   -0.3777   -0.7377 H        1 ZINC000618094467    0.0700
36     H36     1.4188   -0.3400   -1.0212 H        1 ZINC000618094467    0.0700
37     H37    -1.2596   -0.4148    1.4656 H        1 ZINC000618094467    0.0700
38     H38    -0.2308   -0.5214    2.9142 H        1 ZINC000618094467    0.0700
39     H39    -0.3700    1.0188    2.0329 H        1 ZINC000618094467    0.0700
40     H40     2.7598   -1.6880    3.5667 H        1 ZINC000618094467    0.0900
41     H41     1.1893   -0.8754    3.3695 H        1 ZINC000618094467    0.1100
42     H42     1.3442   -0.9604    5.9059 H        1 ZINC000618094467    0.1300
43     H43     0.4711   -2.1604    7.8656 H        1 ZINC000618094467    0.1300
44     H44    -0.2241   -4.5165    7.6513 H        1 ZINC000618094467    0.1200
45     H45    -0.0549   -5.6501    5.4789 H        1 ZINC000618094467    0.1200
46     H46     1.1155   -5.7139    3.3388 H        1 ZINC000618094467    0.0900
47     H47    -0.2097   -4.7099    2.7126 H        1 ZINC000618094467    0.1000
48     H48     4.0543   -3.0519   -0.3091 H        1 ZINC000618094467    0.0700
49     H49     3.8610   -3.7304    1.3278 H        1 ZINC000618094467    0.0900
50     H50     3.8385   -6.6841    0.7685 H        1 ZINC000618094467    0.0600
51     H51     5.6069   -6.8867    0.7617 H        1 ZINC000618094467    0.0600
52     H52     4.8393   -5.8081    1.9515 H        1 ZINC000618094467    0.0700
53     H53     4.0514   -7.0331   -3.6118 H        1 ZINC000618094467    0.0700
54     H54     2.3152   -6.6417   -3.6396 H        1 ZINC000618094467    0.0700
55     H55     3.5210   -5.3592   -3.9031 H        1 ZINC000618094467    0.0600
56     H56     1.3082   -5.3452   -1.5938 H        1 ZINC000618094467    0.1100
57     H57     2.4254   -4.0812   -2.1695 H        1 ZINC000618094467    0.0700
@<TRIPOS>BOND
1     1     2     1
2     1     32    1
3     1     33    1
4     1     34    1
5     2     3     1
6     2     35    1
7     2     36    1
8     3     4     1
9     3     5     1
10    3     6     1
11    5     37    1
12    5     38    1
13    5     39    1
14    6     7     2
15    6     8     am
16    8     17    1
17    8     9     1
18    9     10    1
19    9     40    1
20    9     41    1
21    10    15    ar
22    10    11    ar
23    11    12    ar
24    11    42    1
25    12    13    ar
26    12    43    1
27    13    14    ar
28    13    44    1
29    14    15    ar
30    14    45    1
31    15    16    1
32    16    17    1
33    16    46    1
34    16    47    1
35    17    18    1
36    17    19    1
37    19    20    2
38    19    21    am
39    21    31    1
40    21    22    1
41    22    23    1
42    22    48    1
43    22    49    1
44    23    24    1
45    23    25    1
46    23    26    1
47    25    50    1
48    25    51    1
49    25    52    1
50    26    27    2
51    26    28    1
52    28    29    1
53    28    30    1
54    28    31    1
55    30    53    1
56    30    54    1
57    30    55    1
58    31    56    1
59    31    57    1
@<TRIPOS>SUBSTRUCTURE
1   ZINC000618094467 1     RESIDUE    1   A     ZIN   1
@<TRIPOS>MOLECULE
ZINC000245764166
59	61	1	0	0
SMALL
USER_CHARGES
@<TRIPOS>ATOM
1      C1      0.1127    0.3561    1.6111 C.3      1 ZINC000245764166    0.0200
2      N2     -0.2446    0.3397    0.1863 N.3      1 ZINC000245764166   -0.5300
3      C3      0.9034   -0.0574   -0.6398 C.3      1 ZINC000245764166    0.0600
4      C4      2.0103    0.9528   -0.4804 C.ar     1 ZINC000245764166   -0.0800
5      C5      2.0723    2.0485   -1.3210 C.ar     1 ZINC000245764166   -0.1000
6      C6      3.0876    2.9751   -1.1749 C.ar     1 ZINC000245764166   -0.1200
7      C7      4.0406    2.8064   -0.1879 C.ar     1 ZINC000245764166   -0.1200
8      C8      3.9781    1.7112    0.6533 C.ar     1 ZINC000245764166   -0.1200
9      C9      2.9603    0.7868    0.5099 C.ar     1 ZINC000245764166   -0.1200
10     C10    -1.3971   -0.5380   -0.0573 C.3      1 ZINC000245764166    0.0500
11     C11    -1.8518   -0.3910   -1.5108 C.3      1 ZINC000245764166    0.1900
12     C12    -3.2141   -1.0641   -1.6896 C.3      1 ZINC000245764166   -0.1600
13     C13    -1.9665    1.0937   -1.8617 C.3      1 ZINC000245764166   -0.1500
14     N14    -0.8728   -1.0276   -2.3954 N.am     1 ZINC000245764166   -0.7400
15     C15    -0.9962   -0.9104   -3.7324 C.2      1 ZINC000245764166    0.7000
16     O16    -1.9200   -0.2763   -4.2044 O.2      1 ZINC000245764166   -0.5800
17     N17    -0.0955   -1.4961   -4.5462 N.am     1 ZINC000245764166   -0.7500
18     C18    -0.2297   -1.3686   -5.9995 C.3      1 ZINC000245764166    0.1800
19     H19    -0.6280   -0.3824   -6.2378 H        1 ZINC000245764166    0.0900
20     C20    -1.1932   -2.4367   -6.5107 C.3      1 ZINC000245764166   -0.1300
21     C21    -1.3700   -2.2528   -8.0220 C.3      1 ZINC000245764166   -0.1100
22     C22    -0.0187   -2.4877   -8.6967 C.3      1 ZINC000245764166   -0.1100
23     C23     1.0274   -1.5262   -8.1836 C.3      1 ZINC000245764166    0.0900
24     H24     1.9968   -1.8013   -8.5991 H        1 ZINC000245764166    0.0600
25     O25     0.7480   -0.1604   -8.5195 O.3      1 ZINC000245764166   -0.3600
26     C26     1.5991    0.6422   -7.6774 C.3      1 ZINC000245764166    0.0500
27     C27     1.9047   -0.1852   -6.4123 C.3      1 ZINC000245764166   -0.1500
28     C28     1.1473   -1.5258   -6.6481 C.3      1 ZINC000245764166   -0.1300
29     H29     1.6963   -2.3892   -6.2723 H        1 ZINC000245764166    0.1000
30     H30     0.9579    1.0267    1.7661 H        1 ZINC000245764166    0.0800
31     H31    -0.7391    0.7041    2.1953 H        1 ZINC000245764166    0.0700
32     H32     0.3845   -0.6505    1.9292 H        1 ZINC000245764166    0.0200
33     H33     1.2579   -1.0379   -0.3219 H        1 ZINC000245764166    0.0400
34     H34     0.6002   -0.1022   -1.6858 H        1 ZINC000245764166    0.1100
35     H35     1.3277    2.1803   -2.0921 H        1 ZINC000245764166    0.1200
36     H36     3.1365    3.8308   -1.8321 H        1 ZINC000245764166    0.1200
37     H37     4.8342    3.5300   -0.0742 H        1 ZINC000245764166    0.1200
38     H38     4.7228    1.5792    1.4242 H        1 ZINC000245764166    0.1200
39     H39     2.9114   -0.0688    1.1671 H        1 ZINC000245764166    0.1200
40     H40    -1.1120   -1.5730    0.1313 H        1 ZINC000245764166    0.0400
41     H41    -2.2136   -0.2589    0.6087 H        1 ZINC000245764166    0.1000
42     H42    -3.9425   -0.5904   -1.0314 H        1 ZINC000245764166    0.0700
43     H43    -3.5380   -0.9594   -2.7251 H        1 ZINC000245764166    0.0800
44     H44    -3.1324   -2.1219   -1.4396 H        1 ZINC000245764166    0.0500
45     H45    -0.9750    1.5466   -1.8538 H        1 ZINC000245764166    0.0600
46     H46    -2.4065    1.1998   -2.8533 H        1 ZINC000245764166    0.0800
47     H47    -2.5997    1.5926   -1.1280 H        1 ZINC000245764166    0.0600
48     H48    -0.1357   -1.5335   -2.0189 H        1 ZINC000245764166    0.3900
49     H49     0.6415   -2.0019   -4.1697 H        1 ZINC000245764166    0.3900
50     H50    -0.7835   -3.4262   -6.3080 H        1 ZINC000245764166    0.0600
51     H51    -2.1571   -2.3280   -6.0137 H        1 ZINC000245764166    0.0700
52     H52    -2.0977   -2.9726   -8.3969 H        1 ZINC000245764166    0.0700
53     H53    -1.7137   -1.2397   -8.2310 H        1 ZINC000245764166    0.0700
54     H54     0.3069   -3.5086   -8.4973 H        1 ZINC000245764166    0.0800
55     H55    -0.1292   -2.3535   -9.7728 H        1 ZINC000245764166    0.0700
56     H56     2.5263    0.8741   -8.2014 H        1 ZINC000245764166    0.0600
57     H57     1.0859    1.5637   -7.4026 H        1 ZINC000245764166    0.0800
58     H58     2.9763   -0.3628   -6.3212 H        1 ZINC000245764166    0.0800
59     H59     1.5229    0.3187   -5.5244 H        1 ZINC000245764166    0.0800
@<TRIPOS>BOND
1     1     2     1
2     1     30    1
3     1     31    1
4     1     32    1
5     2     3     1
6     2     10    1
7     3     4     1
8     3     33    1
9     3     34    1
10    4     9     ar
11    4     5     ar
12    5     6     ar
13    5     35    1
14    6     7     ar
15    6     36    1
16    7     8     ar
17    7     37    1
18    8     9     ar
19    8     38    1
20    9     39    1
21    10    11    1
22    10    40    1
23    10    41    1
24    11    12    1
25    11    13    1
26    11    14    1
27    12    42    1
28    12    43    1
29    12    44    1
30    13    45    1
31    13    46    1
32    13    47    1
33    14    15    am
34    14    48    1
35    15    16    2
36    15    17    am
37    17    18    1
38    17    49    1
39    18    19    1
40    18    28    1
41    18    20    1
42    20    21    1
43    20    50    1
44    20    51    1
45    21    22    1
46    21    52    1
47    21    53    1
48    22    23    1
49    22    54    1
50    22    55    1
51    23    24    1
52    23    28    1
53    23    25    1
54    25    26    1
55    26    27    1
56    26    56    1
57    26    57    1
58    27    28    1
59    27    58    1
60    27    59    1
61    28    29    1
@<TRIPOS>SUBSTRUCTURE
1   ZINC000245764166 1     RESIDUE    1   A     ZIN   1
@<TRIPOS>MOLECULE
ZINC001076281847
43	46	1	0	0
SMALL
USER_CHARGES
@<TRIPOS>ATOM
1      C1     -0.2087    1.3738   -0.2809 C.3      1 ZINC001076281847   -0.0900
2      C2     -0.0929   -0.1274   -0.2164 C.2      1 ZINC001076281847    0.1400
3      N3     -0.0897   -0.8568   -1.2934 N.2      1 ZINC001076281847   -0.4600
4      S4      0.0558   -2.4736   -0.8020 S.3      1 ZINC001076281847    0.2500
5      C5      0.1113   -2.1355    0.8840 C.2      1 ZINC001076281847   -0.2100
6      C6      0.2403   -3.1291    2.0098 C.3      1 ZINC001076281847    0.1200
7      N7     -1.0964   -3.5756    2.4243 N.3      1 ZINC001076281847   -0.5000
8      C8     -1.8659   -4.0746    1.2739 C.3      1 ZINC001076281847    0.0300
9      C9     -3.3164   -3.5928    1.4659 C.3      1 ZINC001076281847   -0.1000
10     H10    -3.9635   -4.3393    1.9264 H        1 ZINC001076281847    0.1200
11     C11    -3.8420   -3.0783    0.1000 C.3      1 ZINC001076281847   -0.1300
12     C12    -3.0944   -1.7292   -0.0383 C.3      1 ZINC001076281847    0.1000
13     N13    -3.0542   -1.1788    1.3285 N.am     1 ZINC001076281847   -0.6000
14     C14    -2.9393    0.1260    1.6456 C.2      1 ZINC001076281847    0.5700
15     O15    -2.7463    0.9488    0.7724 O.2      1 ZINC001076281847   -0.4900
16     C16    -3.0484    0.5571    3.0580 C.ar     1 ZINC001076281847   -0.0800
17     C17    -3.1528   -0.3808    4.0897 C.ar     1 ZINC001076281847   -0.1800
18     C18    -3.2520    0.0653    5.3933 C.ar     1 ZINC001076281847    0.1000
19     N19    -3.2492    1.3539    5.6706 N.ar     1 ZINC001076281847   -0.4500
20     C20    -3.1528    2.2719    4.7300 C.ar     1 ZINC001076281847    0.1100
21     C21    -3.0440    1.9148    3.3982 C.ar     1 ZINC001076281847   -0.0500
22     Cl22   -2.9169    3.1318    2.1667 Cl       1 ZINC001076281847   -0.0100
23     C23    -3.1618   -2.2973    2.3075 C.3      1 ZINC001076281847    0.1000
24     H24    -4.0009   -2.1490    2.9874 H        1 ZINC001076281847    0.1100
25     C25    -1.8412   -2.4828    3.0674 C.3      1 ZINC001076281847    0.0200
26     C26     0.0202   -0.7911    0.9860 C.2      1 ZINC001076281847   -0.1800
27     H27     0.7875    1.8159   -0.2676 H        1 ZINC001076281847    0.0700
28     H28    -0.7209    1.6596   -1.1996 H        1 ZINC001076281847    0.0800
29     H29    -0.7765    1.7317    0.5780 H        1 ZINC001076281847    0.0900
30     H30     0.8216   -3.9871    1.6722 H        1 ZINC001076281847    0.1000
31     H31     0.7441   -2.6583    2.8539 H        1 ZINC001076281847    0.1000
32     H32    -1.4578   -3.6688    0.3482 H        1 ZINC001076281847    0.0600
33     H33    -1.8352   -5.1639    1.2492 H        1 ZINC001076281847    0.0900
34     H34    -3.5685   -3.7602   -0.7051 H        1 ZINC001076281847    0.0900
35     H35    -4.9208   -2.9252    0.1298 H        1 ZINC001076281847    0.0800
36     H36    -2.0834   -1.8923   -0.4116 H        1 ZINC001076281847    0.0800
37     H37    -3.6411   -1.0588   -0.7014 H        1 ZINC001076281847    0.0800
38     H38    -3.1562   -1.4384    3.8707 H        1 ZINC001076281847    0.1800
39     H39    -3.3334   -0.6520    6.1966 H        1 ZINC001076281847    0.1700
40     H40    -3.1545    3.3168    5.0031 H        1 ZINC001076281847    0.1700
41     H41    -2.0467   -2.7203    4.1112 H        1 ZINC001076281847    0.1000
42     H42    -1.2497   -1.5692    3.0070 H        1 ZINC001076281847    0.0700
43     H43     0.0285   -0.2774    1.9360 H        1 ZINC001076281847    0.1400
@<TRIPOS>BOND
1     1     2     1
2     1     27    1
3     1     28    1
4     1     29    1
5     2     26    1
6     2     3     2
7     3     4     1
8     4     5     1
9     5     6     1
10    5     26    2
11    6     7     1
12    6     30    1
13    6     31    1
14    7     25    1
15    7     8     1
16    8     9     1
17    8     32    1
18    8     33    1
19    9     10    1
20    9     23    1
21    9     11    1
22    11    12    1
23    11    34    1
24    11    35    1
25    12    13    1
26    12    36    1
27    12    37    1
28    13    14    am
29    13    23    1
30    14    15    2
31    14    16    1
32    16    21    ar
33    16    17    ar
34    17    18    ar
35    17    38    1
36    18    19    ar
37    18    39    1
38    19    20    ar
39    20    21    ar
40    20    40    1
41    21    22    1
42    23    24    1
43    23    25    1
44    25    41    1
45    25    42    1
46    26    43    1
@<TRIPOS>SUBSTRUCTURE
1   ZINC001076281847 1     RESIDUE    1   A     ZIN   1
@<TRIPOS>MOLECULE
ZINC000805177769
65	66	1	0	0
SMALL
USER_CHARGES
@<TRIPOS>ATOM
1      C1     -0.0184    1.5028    0.0103 C.3      1 ZINC000805177769   -0.1200
2      C2      0.0021   -0.0041    0.0020 C.ar     1 ZINC000805177769   -0.0800
3      C3      0.0057   -0.6885   -1.1987 C.ar     1 ZINC000805177769   -0.1200
4      C4      0.0245   -2.0710   -1.2063 C.ar     1 ZINC000805177769   -0.1100
5      C5      0.0400   -2.7685   -0.0132 C.ar     1 ZINC000805177769   -0.0900
6      C6      0.0600   -4.2753   -0.0215 C.3      1 ZINC000805177769   -0.0900
7      C7     -1.3695   -4.8050    0.1090 C.3      1 ZINC000805177769    0.1500
8      H8     -1.8341   -4.3814    0.9994 H        1 ZINC000805177769    0.1000
9      C9     -1.3395   -6.3302    0.2260 C.3      1 ZINC000805177769   -0.1700
10     N10    -2.1425   -4.4211   -1.0747 N.am     1 ZINC000805177769   -0.6900
11     C11    -3.4837   -4.3124   -0.9977 C.2      1 ZINC000805177769    0.5100
12     O12    -4.0509   -4.5326    0.0522 O.2      1 ZINC000805177769   -0.5100
13     C13    -4.2722   -3.9208   -2.2053 C.2      1 ZINC000805177769    0.5200
14     O14    -3.7050   -3.7007   -3.2552 O.2      1 ZINC000805177769   -0.5200
15     N15    -5.6134   -3.8121   -2.1282 N.am     1 ZINC000805177769   -0.5900
16     C16    -6.4239   -4.0427   -0.9235 C.3      1 ZINC000805177769    0.1100
17     C17    -7.8956   -3.7755   -1.3033 C.3      1 ZINC000805177769   -0.1500
18     C18    -7.7720   -2.8613   -2.5509 C.3      1 ZINC000805177769    0.1500
19     H19    -7.6157   -1.8225   -2.2601 H        1 ZINC000805177769    0.1200
20     N20    -8.9479   -2.9906   -3.4151 N.am     1 ZINC000805177769   -0.5900
21     C21    -9.2929   -4.2919   -3.9929 C.3      1 ZINC000805177769    0.0800
22     C22    -9.7122   -1.9123   -3.6788 C.2      1 ZINC000805177769    0.6600
23     O23    -9.4261   -0.8329   -3.1996 O.2      1 ZINC000805177769   -0.5600
24     O24   -10.7929   -2.0311   -4.4730 O.3      1 ZINC000805177769   -0.3600
25     C25   -11.5697   -0.8281   -4.7134 C.3      1 ZINC000805177769    0.1400
26     C26   -10.6837    0.2265   -5.3797 C.3      1 ZINC000805177769   -0.1800
27     C27   -12.7487   -1.1573   -5.6312 C.3      1 ZINC000805177769   -0.1400
28     C28   -12.0951   -0.2859   -3.3827 C.3      1 ZINC000805177769   -0.1800
29     C29    -6.5100   -3.4361   -3.2364 C.3      1 ZINC000805177769    0.0900
30     C30     0.0378   -2.0838    1.1879 C.ar     1 ZINC000805177769   -0.0800
31     C31     0.0552   -2.8443    2.4888 C.3      1 ZINC000805177769   -0.1200
32     C32     0.0229   -0.7017    1.1955 C.ar     1 ZINC000805177769   -0.1200
33     H33     1.0042    1.8801    0.0026 H        1 ZINC000805177769    0.0700
34     H34    -0.5455    1.8639   -0.8728 H        1 ZINC000805177769    0.0700
35     H35    -0.5286    1.8543    0.9071 H        1 ZINC000805177769    0.0700
36     H36    -0.0064   -0.1435   -2.1310 H        1 ZINC000805177769    0.1200
37     H37     0.0266   -2.6058   -2.1446 H        1 ZINC000805177769    0.1200
38     H38     0.4940   -4.6278   -0.9571 H        1 ZINC000805177769    0.0800
39     H39     0.6587   -4.6354    0.8152 H        1 ZINC000805177769    0.0900
40     H40    -0.8749   -6.7538   -0.6644 H        1 ZINC000805177769    0.0600
41     H41    -0.7644   -6.6158    1.1068 H        1 ZINC000805177769    0.0700
42     H42    -2.3579   -6.7076    0.3190 H        1 ZINC000805177769    0.0600
43     H43    -1.6891   -4.2451   -1.9140 H        1 ZINC000805177769    0.4100
44     H44    -6.3084   -5.0743   -0.5908 H        1 ZINC000805177769    0.0900
45     H45    -6.1152   -3.3592   -0.1326 H        1 ZINC000805177769    0.0900
46     H46    -8.4038   -4.7061   -1.5559 H        1 ZINC000805177769    0.0900
47     H47    -8.4144   -3.2583   -0.4962 H        1 ZINC000805177769    0.0900
48     H48    -9.9590   -4.8254   -3.3148 H        1 ZINC000805177769    0.0600
49     H49    -9.7920   -4.1435   -4.9504 H        1 ZINC000805177769    0.0800
50     H50    -8.3843   -4.8751   -4.1432 H        1 ZINC000805177769    0.0800
51     H51   -10.3093   -0.1598   -6.3277 H        1 ZINC000805177769    0.0600
52     H52   -11.2668    1.1295   -5.5601 H        1 ZINC000805177769    0.0700
53     H53    -9.8437    0.4610   -4.7258 H        1 ZINC000805177769    0.0900
54     H54   -13.3799   -1.9086   -5.1566 H        1 ZINC000805177769    0.0700
55     H55   -13.3318   -0.2543   -5.8117 H        1 ZINC000805177769    0.0800
56     H56   -12.3743   -1.5436   -6.5793 H        1 ZINC000805177769    0.0700
57     H57   -11.2552   -0.0513   -2.7289 H        1 ZINC000805177769    0.0900
58     H58   -12.6783    0.6171   -3.5632 H        1 ZINC000805177769    0.0700
59     H59   -12.7263   -1.0372   -2.9081 H        1 ZINC000805177769    0.0600
60     H60    -6.0429   -2.6796   -3.8668 H        1 ZINC000805177769    0.0900
61     H61    -6.7661   -4.3167   -3.8256 H        1 ZINC000805177769    0.0800
62     H62     1.0870   -3.0140    2.7966 H        1 ZINC000805177769    0.0700
63     H63    -0.4620   -2.2662    3.2546 H        1 ZINC000805177769    0.0700
64     H64    -0.4467   -3.8027    2.3562 H        1 ZINC000805177769    0.0700
65     H65     0.0211   -0.1668    2.1337 H        1 ZINC000805177769    0.1200
@<TRIPOS>BOND
1     1     2     1
2     1     33    1
3     1     34    1
4     1     35    1
5     2     32    ar
6     2     3     ar
7     3     4     ar
8     3     36    1
9     4     5     ar
10    4     37    1
11    5     6     1
12    5     30    ar
13    6     7     1
14    6     38    1
15    6     39    1
16    7     8     1
17    7     9     1
18    7     10    1
19    9     40    1
20    9     41    1
21    9     42    1
22    10    11    am
23    10    43    1
24    11    12    2
25    11    13    1
26    13    14    2
27    13    15    am
28    15    29    1
29    15    16    1
30    16    17    1
31    16    44    1
32    16    45    1
33    17    18    1
34    17    46    1
35    17    47    1
36    18    19    1
37    18    20    1
38    18    29    1
39    20    21    1
40    20    22    am
41    21    48    1
42    21    49    1
43    21    50    1
44    22    23    2
45    22    24    1
46    24    25    1
47    25    26    1
48    25    27    1
49    25    28    1
50    26    51    1
51    26    52    1
52    26    53    1
53    27    54    1
54    27    55    1
55    27    56    1
56    28    57    1
57    28    58    1
58    28    59    1
59    29    60    1
60    29    61    1
61    30    31    1
62    30    32    ar
63    31    62    1
64    31    63    1
65    31    64    1
66    32    65    1
@<TRIPOS>SUBSTRUCTURE
1   ZINC000805177769 1     RESIDUE    1   A     ZIN   1
@<TRIPOS>MOLECULE
ZINC001272744746
50	52	1	0	0
SMALL
USER_CHARGES
@<TRIPOS>ATOM
1      C1     -0.4717    1.2614    0.4480 C.2      1 ZINC001272744746   -0.1700
2      C2     -0.2772   -0.0223    0.2737 C.2      1 ZINC001272744746   -0.1700
3      C3      1.1249   -0.5730    0.2307 C.3      1 ZINC001272744746    0.1500
4      N4      1.2624   -1.6370    1.2284 N.am     1 ZINC001272744746   -0.6100
5      C5      1.6815   -1.4198    2.6196 C.3      1 ZINC001272744746    0.0700
6      C6      1.2812   -2.7015    3.3702 C.3      1 ZINC001272744746    0.1100
7      C7      1.2548   -3.7513    2.2443 C.3      1 ZINC001272744746   -0.1500
8      C8      1.0158   -2.9375    0.9899 C.2      1 ZINC001272744746    0.5200
9      O9      0.6611   -3.3930   -0.0767 O.2      1 ZINC001272744746   -0.5200
10     C10    -0.1004   -2.5490    3.9912 C.3      1 ZINC001272744746   -0.1000
11     C11    -0.0477   -1.4841    5.0921 C.3      1 ZINC001272744746   -0.1200
12     C12     1.0190   -1.8776    6.1178 C.3      1 ZINC001272744746   -0.1200
13     C13     2.3725   -2.0141    5.4170 C.3      1 ZINC001272744746    0.0500
14     N14     2.2826   -3.0466    4.3747 N.3      1 ZINC001272744746   -0.5100
15     C15     3.5925   -3.2824    3.7529 C.3      1 ZINC001272744746    0.0800
16     C16     4.6030   -3.6138    4.8206 C.ar     1 ZINC001272744746   -0.0200
17     C17     5.4102   -2.6185    5.3386 C.ar     1 ZINC001272744746   -0.1700
18     C18     6.3401   -2.9184    6.3196 C.ar     1 ZINC001272744746    0.1200
19     F19     7.1281   -1.9440    6.8245 F        1 ZINC001272744746   -0.1200
20     C20     6.4618   -4.2197    6.7842 C.ar     1 ZINC001272744746    0.0400
21     O21     7.3743   -4.5169    7.7485 O.3      1 ZINC001272744746   -0.4700
22     C22     5.6483   -5.2200    6.2622 C.ar     1 ZINC001272744746    0.1300
23     O23     5.7636   -6.4972    6.7147 O.3      1 ZINC001272744746   -0.3000
24     C24     4.8957   -7.4723    6.1333 C.3      1 ZINC001272744746    0.0200
25     C25     4.7165   -4.9116    5.2838 C.ar     1 ZINC001272744746   -0.1800
26     H26     0.3728    1.9251    0.5610 H        1 ZINC001272744746    0.1000
27     H27    -1.4764    1.6567    0.4744 H        1 ZINC001272744746    0.1000
28     H28    -1.1217   -0.6860    0.1607 H        1 ZINC001272744746    0.1100
29     H29     1.3264   -0.9769   -0.7614 H        1 ZINC001272744746    0.0900
30     H30     1.8353    0.2243    0.4496 H        1 ZINC001272744746    0.0800
31     H31     2.7604   -1.2736    2.6706 H        1 ZINC001272744746    0.0700
32     H32     1.1627   -0.5583    3.0402 H        1 ZINC001272744746    0.0900
33     H33     2.2090   -4.2753    2.1882 H        1 ZINC001272744746    0.1100
34     H34     0.4389   -4.4573    2.3994 H        1 ZINC001272744746    0.1100
35     H35    -0.8122   -2.2441    3.2241 H        1 ZINC001272744746    0.0700
36     H36    -0.4132   -3.5007    4.4205 H        1 ZINC001272744746    0.0800
37     H37     0.2064   -0.5189    4.6538 H        1 ZINC001272744746    0.0600
38     H38    -1.0188   -1.4187    5.5828 H        1 ZINC001272744746    0.0700
39     H39     1.0842   -1.1088    6.8877 H        1 ZINC001272744746    0.0700
40     H40     0.7493   -2.8292    6.5759 H        1 ZINC001272744746    0.0700
41     H41     2.6439   -1.0614    4.9622 H        1 ZINC001272744746    0.0400
42     H42     3.1319   -2.2983    6.1454 H        1 ZINC001272744746    0.0900
43     H43     3.5177   -4.1144    3.0526 H        1 ZINC001272744746    0.1000
44     H44     3.9082   -2.3858    3.2195 H        1 ZINC001272744746    0.0600
45     H45     5.3158   -1.6052    4.9771 H        1 ZINC001272744746    0.1400
46     H46     7.0340   -4.4370    8.6501 H        1 ZINC001272744746    0.3900
47     H47     5.0757   -7.5247    5.0595 H        1 ZINC001272744746    0.0600
48     H48     5.0908   -8.4462    6.5823 H        1 ZINC001272744746    0.1100
49     H49     3.8587   -7.1899    6.3145 H        1 ZINC001272744746    0.0600
50     H50     4.0840   -5.6869    4.8773 H        1 ZINC001272744746    0.1400
@<TRIPOS>BOND
1     1     2     2
2     1     26    1
3     1     27    1
4     2     3     1
5     2     28    1
6     3     4     1
7     3     29    1
8     3     30    1
9     4     8     am
10    4     5     1
11    5     6     1
12    5     31    1
13    5     32    1
14    6     14    1
15    6     7     1
16    6     10    1
17    7     8     1
18    7     33    1
19    7     34    1
20    8     9     2
21    10    11    1
22    10    35    1
23    10    36    1
24    11    12    1
25    11    37    1
26    11    38    1
27    12    13    1
28    12    39    1
29    12    40    1
30    13    14    1
31    13    41    1
32    13    42    1
33    14    15    1
34    15    16    1
35    15    43    1
36    15    44    1
37    16    25    ar
38    16    17    ar
39    17    18    ar
40    17    45    1
41    18    19    1
42    18    20    ar
43    20    21    1
44    20    22    ar
45    21    46    1
46    22    23    1
47    22    25    ar
48    23    24    1
49    24    47    1
50    24    48    1
51    24    49    1
52    25    50    1
@<TRIPOS>SUBSTRUCTURE
1   ZINC001272744746 1     RESIDUE    1   A     ZIN   1
@<TRIPOS>MOLECULE
ZINC001591898574
47	48	1	0	0
SMALL
USER_CHARGES
@<TRIPOS>ATOM
1      C1     -0.0184    1.5028    0.0103 C.3      1 ZINC001591898574   -0.1100
2      C2      0.0021   -0.0041    0.0020 C.ar     1 ZINC001591898574    0.2300
3      C3      0.0060   -0.6968   -1.1957 C.ar     1 ZINC001591898574   -0.2400
4      C4      0.0256   -2.0931   -1.1569 C.ar     1 ZINC001591898574    0.3000
5      C5      0.0310   -2.8816   -2.4141 C.2      1 ZINC001591898574    0.2100
6      N6      0.0435   -4.1957   -2.5194 N.2      1 ZINC001591898574   -0.2500
7      N7      0.0434   -4.4907   -3.7739 N.pl3    1 ZINC001591898574   -0.2200
8      N8      0.0312   -3.4058   -4.4667 N.2      1 ZINC001591898574   -0.0400
9      N9      0.0183   -2.3963   -3.6638 N.2      1 ZINC001591898574   -0.2500
10     N10     0.0398   -2.7053    0.0244 N.ar     1 ZINC001591898574   -0.5500
11     C11     0.0355   -2.0041    1.1473 C.ar     1 ZINC001591898574    0.5800
12     N12     0.0506   -2.6721    2.3595 N.pl3    1 ZINC001591898574   -0.7000
13     C13     0.0712   -4.1367    2.3886 C.3      1 ZINC001591898574    0.1400
14     C14     0.0849   -4.6177    3.8410 C.3      1 ZINC001591898574   -0.1500
15     C15     0.1063   -6.1473    3.8714 C.3      1 ZINC001591898574    0.1200
16     N16     0.1194   -6.6079    5.2620 N.am     1 ZINC001591898574   -0.7300
17     C17     0.1391   -7.9277    5.5346 C.2      1 ZINC001591898574    0.4900
18     O18     0.1460   -8.7340    4.6286 O.2      1 ZINC001591898574   -0.5300
19     C19     0.1526   -8.4015    6.9651 C.3      1 ZINC001591898574    0.1000
20     N20     0.1732   -9.8661    6.9942 N.am     1 ZINC001591898574   -0.9800
21     C21     1.4467  -10.5830    6.8921 C.3      1 ZINC001591898574    0.1000
22     S22    -1.2432  -10.7113    7.1425 S.o2     1 ZINC001591898574    2.6100
23     C23    -1.7913  -10.9793    5.4342 C.3      1 ZINC001591898574   -0.6600
24     O24    -0.8566  -11.9408    7.7409 O.2      1 ZINC001591898574   -0.9500
25     O25    -2.1183   -9.8139    7.8120 O.2      1 ZINC001591898574   -0.9600
26     N26     0.0221   -0.6791    1.1404 N.ar     1 ZINC001591898574   -0.5600
27     H27     1.0042    1.8801    0.0026 H        1 ZINC001591898574    0.0900
28     H28    -0.5455    1.8639   -0.8728 H        1 ZINC001591898574    0.0900
29     H29    -0.5286    1.8543    0.9071 H        1 ZINC001591898574    0.0900
30     H30    -0.0063   -0.1703   -2.1386 H        1 ZINC001591898574    0.1600
31     H31     0.0513   -5.3894   -4.1389 H        1 ZINC001591898574    0.4800
32     H32     0.0476   -2.1705    3.1897 H        1 ZINC001591898574    0.4200
33     H33    -0.8160   -4.5225    1.8864 H        1 ZINC001591898574    0.0700
34     H34     0.9638   -4.4977    1.8778 H        1 ZINC001591898574    0.0700
35     H35     0.9720   -4.2319    4.3432 H        1 ZINC001591898574    0.0800
36     H36    -0.8078   -4.2567    4.3517 H        1 ZINC001591898574    0.0800
37     H37    -0.7808   -6.5332    3.3692 H        1 ZINC001591898574    0.0700
38     H38     0.9990   -6.5084    3.3606 H        1 ZINC001591898574    0.0700
39     H39     0.1139   -5.9631    5.9866 H        1 ZINC001591898574    0.4000
40     H40     1.0397   -8.0157    7.4673 H        1 ZINC001591898574    0.1200
41     H41    -0.7400   -8.0405    7.4759 H        1 ZINC001591898574    0.1300
42     H42     1.8568  -10.7391    7.8899 H        1 ZINC001591898574    0.0600
43     H43     1.2832  -11.5475    6.4115 H        1 ZINC001591898574    0.0700
44     H44     2.1477   -9.9957    6.2990 H        1 ZINC001591898574    0.0700
45     H45    -1.0334  -11.5469    4.8943 H        1 ZINC001591898574    0.1300
46     H46    -2.7288  -11.5355    5.4365 H        1 ZINC001591898574    0.1200
47     H47    -1.9412  -10.0167    4.9454 H        1 ZINC001591898574    0.1300
@<TRIPOS>BOND
1     1     2     1
2     1     27    1
3     1     28    1
4     1     29    1
5     2     26    ar
6     2     3     ar
7     3     4     ar
8     3     30    1
9     4     5     1
10    4     10    ar
11    5     9     1
12    5     6     2
13    6     7     1
14    7     8     1
15    7     31    1
16    8     9     2
17    10    11    ar
18    11    12    1
19    11    26    ar
20    12    13    1
21    12    32    1
22    13    14    1
23    13    33    1
24    13    34    1
25    14    15    1
26    14    35    1
27    14    36    1
28    15    16    1
29    15    37    1
30    15    38    1
31    16    17    am
32    16    39    1
33    17    18    2
34    17    19    1
35    19    20    1
36    19    40    1
37    19    41    1
38    20    21    1
39    20    22    am
40    21    42    1
41    21    43    1
42    21    44    1
43    22    23    1
44    22    24    2
45    22    25    2
46    23    45    1
47    23    46    1
48    23    47    1
@<TRIPOS>SUBSTRUCTURE
1   ZINC001591898574 1     RESIDUE    1   A     ZIN   1
@<TRIPOS>MOLECULE
ZINC000416583757
35	35	1	0	0
SMALL
USER_CHARGES
@<TRIPOS>ATOM
1      C1     -2.7049   -2.6653    0.0612 C.3      1 ZINC000416583757   -0.1500
2      C2     -2.3516   -1.4063    0.8554 C.3      1 ZINC000416583757   -0.0200
3      H3     -3.2521   -0.8135    1.0162 H        1 ZINC000416583757    0.1200
4      C4     -1.7788   -1.7911    2.1557 C.1      1 ZINC000416583757    0.2100
5      N5     -1.3367   -2.0880    3.1591 N.1      1 ZINC000416583757   -0.4200
6      C6     -1.3297   -0.5794    0.0726 C.3      1 ZINC000416583757    0.1300
7      N7     -1.9452   -0.0830   -1.1607 N.am     1 ZINC000416583757   -1.0100
8      C8     -1.9471   -0.9166   -2.3654 C.3      1 ZINC000416583757    0.0800
9      S9     -2.6386    1.4205   -1.1931 S.o2     1 ZINC000416583757    2.7800
10     O10    -3.4962    1.4425   -2.3260 O.2      1 ZINC000416583757   -0.9700
11     O11    -3.0899    1.6828    0.1285 O.2      1 ZINC000416583757   -0.9700
12     N12    -1.4306    2.5110   -1.4998 N.am     1 ZINC000416583757   -1.1300
13     C13    -0.7270    2.4826   -2.7844 C.3      1 ZINC000416583757    0.1600
14     C14     0.0430    3.7655   -2.9639 C.ar     1 ZINC000416583757   -0.0800
15     C15    -0.5567    4.8516   -3.5728 C.ar     1 ZINC000416583757   -0.0800
16     C16     0.1498    6.0300   -3.7374 C.ar     1 ZINC000416583757   -0.0300
17     Cl17   -0.6037    7.3945   -4.5017 Cl       1 ZINC000416583757   -0.0500
18     C18     1.4562    6.1206   -3.2924 C.ar     1 ZINC000416583757   -0.0700
19     C19     2.0558    5.0332   -2.6830 C.ar     1 ZINC000416583757   -0.0800
20     Br20    3.8419    5.1562   -2.0743 Br       1 ZINC000416583757   -0.0300
21     C21     1.3470    3.8575   -2.5143 C.ar     1 ZINC000416583757   -0.0700
22     H22    -3.3370   -3.3128    0.6688 H        1 ZINC000416583757    0.0700
23     H23    -3.2388   -2.3843   -0.8466 H        1 ZINC000416583757    0.0800
24     H24    -1.7905   -3.1958   -0.2046 H        1 ZINC000416583757    0.0700
25     H25    -1.0026    0.2642    0.6805 H        1 ZINC000416583757    0.0900
26     H26    -0.4710   -1.2032   -0.1754 H        1 ZINC000416583757    0.1000
27     H27    -2.8467   -1.5320   -2.3800 H        1 ZINC000416583757    0.0700
28     H28    -1.9290   -0.2785   -3.2489 H        1 ZINC000416583757    0.0800
29     H29    -1.0670   -1.5597   -2.3637 H        1 ZINC000416583757    0.0800
30     H30    -1.1890    3.1685   -0.8289 H        1 ZINC000416583757    0.4200
31     H31    -0.0368    1.6391   -2.8021 H        1 ZINC000416583757    0.0800
32     H32    -1.4505    2.3769   -3.5928 H        1 ZINC000416583757    0.1000
33     H33    -1.5767    4.7805   -3.9205 H        1 ZINC000416583757    0.1500
34     H34     2.0082    7.0400   -3.4209 H        1 ZINC000416583757    0.1500
35     H35     1.8152    3.0084   -2.0385 H        1 ZINC000416583757    0.1400
@<TRIPOS>BOND
1     1     2     1
2     1     22    1
3     1     23    1
4     1     24    1
5     2     3     1
6     2     4     1
7     2     6     1
8     4     5     3
9     6     7     1
10    6     25    1
11    6     26    1
12    7     8     1
13    7     9     am
14    8     27    1
15    8     28    1
16    8     29    1
17    9     10    2
18    9     11    2
19    9     12    am
20    12    13    1
21    12    30    1
22    13    14    1
23    13    31    1
24    13    32    1
25    14    21    ar
26    14    15    ar
27    15    16    ar
28    15    33    1
29    16    17    1
30    16    18    ar
31    18    19    ar
32    18    34    1
33    19    20    1
34    19    21    ar
35    21    35    1
@<TRIPOS>SUBSTRUCTURE
1   ZINC000416583757 1     RESIDUE    1   A     ZIN   1
@<TRIPOS>MOLECULE
ZINC000564088286
44	46	1	0	0
SMALL
USER_CHARGES
@<TRIPOS>ATOM
1      C1     -0.0187    1.5258    0.0104 C.3      1 ZINC000564088286   -0.1600
2      C2      0.0021   -0.0041    0.0020 C.3      1 ZINC000564088286    0.1100
3      N3      0.6878   -0.4765   -1.2033 N.am     1 ZINC000564088286   -1.1200
4      S4      1.1892   -2.0514   -1.3071 S.o2     1 ZINC000564088286    2.7000
5      O5      1.7784   -2.2010   -2.5915 O.2      1 ZINC000564088286   -0.9600
6      O6      1.8798   -2.3332   -0.0976 O.2      1 ZINC000564088286   -0.9600
7      C7     -0.2554   -3.0601   -1.3019 C.ar     1 ZINC000564088286   -0.6800
8      C8     -0.7768   -3.5145   -0.1049 C.ar     1 ZINC000564088286   -0.0200
9      C9     -1.9102   -4.3059   -0.1008 C.ar     1 ZINC000564088286   -0.1300
10     C10    -2.5225   -4.6426   -1.2936 C.ar     1 ZINC000564088286   -0.0100
11     C11    -3.7577   -5.5058   -1.2891 C.3      1 ZINC000564088286   -0.1100
12     C12    -4.9815   -4.6310   -1.1989 C.2      1 ZINC000564088286    0.5200
13     O13    -4.8623   -3.4253   -1.1438 O.2      1 ZINC000564088286   -0.5200
14     N14    -6.2084   -5.1884   -1.1796 N.am     1 ZINC000564088286   -0.6200
15     C15    -7.4159   -4.3528   -1.0983 C.3      1 ZINC000564088286    0.1200
16     C16    -8.2147   -4.5221   -2.3943 C.3      1 ZINC000564088286   -0.0700
17     C17    -8.2914   -5.9942   -2.7397 C.2      1 ZINC000564088286   -0.1600
18     C18    -7.4812   -6.9484   -2.2446 C.2      1 ZINC000564088286   -0.1200
19     C19    -7.7538   -8.2242   -2.7294 C.2      1 ZINC000564088286   -0.1100
20     C20    -8.7641   -8.3084   -3.5909 C.2      1 ZINC000564088286   -0.1500
21     Cl21   -9.3177   -9.7710   -4.3445 Cl       1 ZINC000564088286   -0.0100
22     S22    -9.4526   -6.7125   -3.8487 S.3      1 ZINC000564088286    0.1600
23     C23    -6.3752   -6.6472   -1.2455 C.3      1 ZINC000564088286    0.1700
24     C24    -2.0018   -4.1871   -2.4904 C.ar     1 ZINC000564088286   -0.1300
25     C25    -0.8707   -3.3925   -2.4943 C.ar     1 ZINC000564088286   -0.0200
26     H26     1.0039    1.9031    0.0027 H        1 ZINC000564088286    0.0600
27     H27    -0.5459    1.8868   -0.8726 H        1 ZINC000564088286    0.0600
28     H28    -0.5289    1.8773    0.9072 H        1 ZINC000564088286    0.0700
29     H29     0.5293   -0.3651    0.8851 H        1 ZINC000564088286    0.0800
30     H30    -1.0205   -0.3814    0.0098 H        1 ZINC000564088286    0.0700
31     H31     0.8481    0.1331   -1.9406 H        1 ZINC000564088286    0.4200
32     H32    -0.2985   -3.2514    0.8269 H        1 ZINC000564088286    0.1400
33     H33    -2.3171   -4.6614    0.8343 H        1 ZINC000564088286    0.1300
34     H34    -3.7959   -6.0903   -2.2083 H        1 ZINC000564088286    0.1100
35     H35    -3.7279   -6.1783   -0.4318 H        1 ZINC000564088286    0.1100
36     H36    -8.0232   -4.6687   -0.2501 H        1 ZINC000564088286    0.0800
37     H37    -7.1303   -3.3077   -0.9782 H        1 ZINC000564088286    0.1100
38     H38    -9.2213   -4.1272   -2.2563 H        1 ZINC000564088286    0.0900
39     H39    -7.7182   -3.9837   -3.2016 H        1 ZINC000564088286    0.0900
40     H40    -7.1825   -9.0892   -2.4264 H        1 ZINC000564088286    0.1500
41     H41    -5.4455   -7.1130   -1.5723 H        1 ZINC000564088286    0.1000
42     H42    -6.6529   -7.0260   -0.2619 H        1 ZINC000564088286    0.0900
43     H43    -2.4804   -4.4499   -3.4222 H        1 ZINC000564088286    0.1300
44     H44    -0.4639   -3.0367   -3.4293 H        1 ZINC000564088286    0.1400
@<TRIPOS>BOND
1     1     2     1
2     1     26    1
3     1     27    1
4     1     28    1
5     2     3     1
6     2     29    1
7     2     30    1
8     3     4     am
9     3     31    1
10    4     5     2
11    4     6     2
12    4     7     1
13    7     25    ar
14    7     8     ar
15    8     9     ar
16    8     32    1
17    9     10    ar
18    9     33    1
19    10    11    1
20    10    24    ar
21    11    12    1
22    11    34    1
23    11    35    1
24    12    13    2
25    12    14    am
26    14    23    1
27    14    15    1
28    15    16    1
29    15    36    1
30    15    37    1
31    16    17    1
32    16    38    1
33    16    39    1
34    17    22    1
35    17    18    2
36    18    19    1
37    18    23    1
38    19    20    2
39    19    40    1
40    20    21    1
41    20    22    1
42    23    41    1
43    23    42    1
44    24    25    ar
45    24    43    1
46    25    44    1
@<TRIPOS>SUBSTRUCTURE
1   ZINC000564088286 1     RESIDUE    1   A     ZIN   1
@<TRIPOS>MOLECULE
ZINC000132775118
59	62	1	0	0
SMALL
USER_CHARGES
@<TRIPOS>ATOM
1      O1      0.9726    1.6183   -0.0542 O.2      1 ZINC000132775118   -0.5200
2      C2      0.3548    2.5919    0.3216 C.2      1 ZINC000132775118    0.5200
3      C3      1.0869    3.7605    0.9295 C.3      1 ZINC000132775118    0.0300
4      N4      2.5279    3.4763    0.9542 N.3      1 ZINC000132775118   -0.5100
5      C5      3.0785    3.4265   -0.4082 C.3      1 ZINC000132775118    0.0300
6      C6      4.5778    3.3534   -0.3711 C.2      1 ZINC000132775118    0.5300
7      O7      5.1643    3.0218   -1.3796 O.2      1 ZINC000132775118   -0.5500
8      N8      5.2992    3.6372    0.7218 N.am     1 ZINC000132775118   -0.7200
9      C9      4.6729    3.9773    1.9919 C.3      1 ZINC000132775118    0.1500
10     H10     4.6319    3.0849    2.6165 H        1 ZINC000132775118    0.0800
11     C11     5.4521    5.0635    2.7300 C.3      1 ZINC000132775118   -0.1300
12     C12     4.7772    5.3267    4.0800 C.3      1 ZINC000132775118   -0.1200
13     C13     3.3314    5.7739    3.8628 C.3      1 ZINC000132775118   -0.1200
14     C14     2.5593    4.6958    3.0956 C.3      1 ZINC000132775118   -0.1200
15     C15     3.2480    4.4786    1.7478 C.3      1 ZINC000132775118    0.0700
16     H16     3.2681    5.4184    1.1961 H        1 ZINC000132775118    0.0600
17     N17    -0.9860    2.6311    0.1903 N.am     1 ZINC000132775118   -0.6200
18     C18    -1.7477    3.8061    0.6353 C.3      1 ZINC000132775118    0.1100
19     C19    -2.6165    4.2993   -0.5261 C.3      1 ZINC000132775118   -0.1200
20     C20    -3.4824    3.1451   -1.0360 C.3      1 ZINC000132775118   -0.1000
21     C21    -4.3632    3.6352   -2.1564 C.2      1 ZINC000132775118    0.5300
22     O22    -3.9655    4.5021   -2.9055 O.2      1 ZINC000132775118   -0.5300
23     N23    -5.5928    3.1101   -2.3258 N.am     1 ZINC000132775118   -0.6200
24     C24    -6.5082    3.4126   -3.4359 C.3      1 ZINC000132775118    0.1000
25     C25    -7.8002    2.6028   -3.1980 C.3      1 ZINC000132775118   -0.1300
26     C26    -7.7607    2.3258   -1.6719 C.3      1 ZINC000132775118   -0.1300
27     C27    -6.2402    2.1324   -1.4323 C.3      1 ZINC000132775118    0.1000
28     C28    -2.5829    2.0187   -1.5501 C.3      1 ZINC000132775118   -0.1200
29     C29    -1.7131    1.5022   -0.4059 C.3      1 ZINC000132775118    0.1200
30     H30     0.9029    4.6543    0.3335 H        1 ZINC000132775118    0.0700
31     H31     0.7310    3.9226    1.9470 H        1 ZINC000132775118    0.1200
32     H32     2.6886    2.5474   -0.9213 H        1 ZINC000132775118    0.1300
33     H33     2.7758    4.3220   -0.9509 H        1 ZINC000132775118    0.0700
34     H34     6.2674    3.6152    0.6655 H        1 ZINC000132775118    0.4000
35     H35     6.4772    4.7307    2.8930 H        1 ZINC000132775118    0.0800
36     H36     5.4532    5.9785    2.1377 H        1 ZINC000132775118    0.0700
37     H37     4.7878    4.4129    4.6742 H        1 ZINC000132775118    0.0700
38     H38     5.3217    6.1078    4.6106 H        1 ZINC000132775118    0.0700
39     H39     2.8554    5.9413    4.8290 H        1 ZINC000132775118    0.0700
40     H40     3.3218    6.7019    3.2910 H        1 ZINC000132775118    0.0600
41     H41     2.5581    3.7693    3.6697 H        1 ZINC000132775118    0.0800
42     H42     1.5340    5.0276    2.9321 H        1 ZINC000132775118    0.0700
43     H43    -2.3839    3.5319    1.4768 H        1 ZINC000132775118    0.0800
44     H44    -1.0589    4.5952    0.9371 H        1 ZINC000132775118    0.0900
45     H45    -3.2577    5.1106   -0.1817 H        1 ZINC000132775118    0.0800
46     H46    -1.9766    4.6578   -1.3324 H        1 ZINC000132775118    0.0800
47     H47    -4.1040    2.7706   -0.2227 H        1 ZINC000132775118    0.0900
48     H48    -6.7358    4.4785   -3.4486 H        1 ZINC000132775118    0.0700
49     H49    -6.0543    3.1170   -4.3817 H        1 ZINC000132775118    0.0700
50     H50    -8.6786    3.1924   -3.4603 H        1 ZINC000132775118    0.0800
51     H51    -7.7791    1.6691   -3.7601 H        1 ZINC000132775118    0.0800
52     H52    -8.1428    3.1781   -1.1101 H        1 ZINC000132775118    0.0800
53     H53    -8.3118    1.4183   -1.4251 H        1 ZINC000132775118    0.0900
54     H54    -5.9414    1.1169   -1.6922 H        1 ZINC000132775118    0.0700
55     H55    -5.9894    2.3485   -0.3938 H        1 ZINC000132775118    0.0800
56     H56    -3.2003    1.2068   -1.9346 H        1 ZINC000132775118    0.0800
57     H57    -1.9434    2.3987   -2.3468 H        1 ZINC000132775118    0.0800
58     H58    -1.0027    0.7696   -0.7889 H        1 ZINC000132775118    0.1000
59     H59    -2.3444    1.0400    0.3530 H        1 ZINC000132775118    0.0700
@<TRIPOS>BOND
1     1     2     2
2     2     3     1
3     2     17    am
4     3     4     1
5     3     30    1
6     3     31    1
7     4     15    1
8     4     5     1
9     5     6     1
10    5     32    1
11    5     33    1
12    6     7     2
13    6     8     am
14    8     9     1
15    8     34    1
16    9     10    1
17    9     15    1
18    9     11    1
19    11    12    1
20    11    35    1
21    11    36    1
22    12    13    1
23    12    37    1
24    12    38    1
25    13    14    1
26    13    39    1
27    13    40    1
28    14    15    1
29    14    41    1
30    14    42    1
31    15    16    1
32    17    29    1
33    17    18    1
34    18    19    1
35    18    43    1
36    18    44    1
37    19    20    1
38    19    45    1
39    19    46    1
40    20    21    1
41    20    28    1
42    20    47    1
43    21    22    2
44    21    23    am
45    23    27    1
46    23    24    1
47    24    25    1
48    24    48    1
49    24    49    1
50    25    26    1
51    25    50    1
52    25    51    1
53    26    27    1
54    26    52    1
55    26    53    1
56    27    54    1
57    27    55    1
58    28    29    1
59    28    56    1
60    28    57    1
61    29    58    1
62    29    59    1
@<TRIPOS>SUBSTRUCTURE
1   ZINC000132775118 1     RESIDUE    1   A     ZIN   1
@<TRIPOS>MOLECULE
ZINC000484424341
51	53	1	0	0
SMALL
USER_CHARGES
@<TRIPOS>ATOM
1      C1      2.3628    0.4832    0.0940 C.3      1 ZINC000484424341    0.0300
2      O2      1.5206   -0.6698    0.0366 O.3      1 ZINC000484424341   -0.3800
3      C3      1.8641   -1.6880    0.9786 C.3      1 ZINC000484424341    0.1300
4      H4      2.3055   -1.2300    1.8637 H        1 ZINC000484424341    0.0700
5      C5      2.8718   -2.6495    0.3455 C.3      1 ZINC000484424341   -0.1700
6      C6      0.6235   -2.4477    1.3718 C.ar     1 ZINC000484424341   -0.0700
7      C7     -0.3238   -2.7654    0.4160 C.ar     1 ZINC000484424341   -0.1000
8      C8     -1.4639   -3.4626    0.7725 C.ar     1 ZINC000484424341   -0.1000
9      C9     -1.6598   -3.8438    2.0850 C.ar     1 ZINC000484424341   -0.1100
10     C10    -0.7099   -3.5263    3.0482 C.ar     1 ZINC000484424341    0.1400
11     N11    -0.9047   -3.9109    4.3772 N.am     1 ZINC000484424341   -0.6400
12     C12    -1.5453   -5.0629    4.6584 C.2      1 ZINC000484424341    0.5100
13     O13    -1.8681   -5.8127    3.7602 O.2      1 ZINC000484424341   -0.4900
14     C14    -1.8578   -5.4169    6.0753 C.2      1 ZINC000484424341    0.5200
15     O15    -1.5350   -4.6672    6.9735 O.2      1 ZINC000484424341   -0.5200
16     N16    -2.4984   -6.5689    6.3565 N.am     1 ZINC000484424341   -0.5800
17     C17    -2.9391   -7.5669    5.3710 C.3      1 ZINC000484424341    0.1100
18     C18    -3.5967   -8.7236    6.1528 C.3      1 ZINC000484424341   -0.1500
19     C19    -2.9845   -8.5767    7.5709 C.3      1 ZINC000484424341    0.1500
20     H20    -2.0019   -9.0459    7.6228 H        1 ZINC000484424341    0.1100
21     N21    -3.8811   -9.1284    8.5897 N.am     1 ZINC000484424341   -0.6100
22     C22    -3.5267  -10.2246    9.4989 C.3      1 ZINC000484424341    0.1000
23     C23    -4.5665  -10.1663   10.6398 C.3      1 ZINC000484424341   -0.1300
24     C24    -5.7638   -9.4818    9.9405 C.3      1 ZINC000484424341   -0.1600
25     C25    -5.1322   -8.6917    8.8156 C.2      1 ZINC000484424341    0.5200
26     O26    -5.6778   -7.7992    8.2020 O.2      1 ZINC000484424341   -0.5200
27     C27    -2.8675   -7.0400    7.7038 C.3      1 ZINC000484424341    0.0900
28     C28     0.4366   -2.8309    2.6856 C.ar     1 ZINC000484424341   -0.1300
29     H29     3.3930    0.1911   -0.1095 H        1 ZINC000484424341    0.0400
30     H30     2.0368    1.2087   -0.6514 H        1 ZINC000484424341    0.0900
31     H31     2.3008    0.9293    1.0866 H        1 ZINC000484424341    0.0400
32     H32     2.4304   -3.1075   -0.5396 H        1 ZINC000484424341    0.0700
33     H33     3.7691   -2.1000    0.0611 H        1 ZINC000484424341    0.0600
34     H34     3.1338   -3.4262    1.0641 H        1 ZINC000484424341    0.0700
35     H35    -0.1733   -2.4681   -0.6113 H        1 ZINC000484424341    0.1300
36     H36    -2.2020   -3.7087    0.0234 H        1 ZINC000484424341    0.1300
37     H37    -2.5504   -4.3879    2.3628 H        1 ZINC000484424341    0.1300
38     H38    -0.5789   -3.3488    5.0975 H        1 ZINC000484424341    0.4200
39     H39    -3.6638   -7.1205    4.6901 H        1 ZINC000484424341    0.0800
40     H40    -2.0811   -7.9387    4.8108 H        1 ZINC000484424341    0.0800
41     H41    -4.6792   -8.6006    6.1855 H        1 ZINC000484424341    0.0900
42     H42    -3.3297   -9.6856    5.7153 H        1 ZINC000484424341    0.0900
43     H43    -3.5898  -11.1808    8.9795 H        1 ZINC000484424341    0.0800
44     H44    -2.5225  -10.0757    9.8958 H        1 ZINC000484424341    0.0800
45     H45    -4.8324  -11.1682   10.9769 H        1 ZINC000484424341    0.0900
46     H46    -4.2015   -9.5612   11.4697 H        1 ZINC000484424341    0.0800
47     H47    -6.4535  -10.2285    9.5470 H        1 ZINC000484424341    0.1100
48     H48    -6.2775   -8.8131   10.6311 H        1 ZINC000484424341    0.1000
49     H49    -2.0936   -6.7794    8.4258 H        1 ZINC000484424341    0.0900
50     H50    -3.8245   -6.6110    8.0009 H        1 ZINC000484424341    0.0900
51     H51     1.1771   -2.5828    3.4316 H        1 ZINC000484424341    0.1300
@<TRIPOS>BOND
1     1     2     1
2     1     29    1
3     1     30    1
4     1     31    1
5     2     3     1
6     3     4     1
7     3     5     1
8     3     6     1
9     5     32    1
10    5     33    1
11    5     34    1
12    6     28    ar
13    6     7     ar
14    7     8     ar
15    7     35    1
16    8     9     ar
17    8     36    1
18    9     10    ar
19    9     37    1
20    10    11    1
21    10    28    ar
22    11    12    am
23    11    38    1
24    12    13    2
25    12    14    1
26    14    15    2
27    14    16    am
28    16    27    1
29    16    17    1
30    17    18    1
31    17    39    1
32    17    40    1
33    18    19    1
34    18    41    1
35    18    42    1
36    19    20    1
37    19    21    1
38    19    27    1
39    21    25    am
40    21    22    1
41    22    23    1
42    22    43    1
43    22    44    1
44    23    24    1
45    23    45    1
46    23    46    1
47    24    25    1
48    24    47    1
49    24    48    1
50    25    26    2
51    27    49    1
52    27    50    1
53    28    51    1
@<TRIPOS>SUBSTRUCTURE
1   ZINC000484424341 1     RESIDUE    1   A     ZIN   1
@<TRIPOS>MOLECULE
ZINC000653668607
53	56	1	0	0
SMALL
USER_CHARGES
@<TRIPOS>ATOM
1      C1      8.2254   -4.0581   -1.5505 C.3      1 ZINC000653668607    0.0300
2      O2      6.9297   -3.8075   -1.0024 O.3      1 ZINC000653668607   -0.3200
3      C3      5.9239   -3.5635   -1.8831 C.ar     1 ZINC000653668607    0.1300
4      C4      6.1749   -3.5702   -3.2474 C.ar     1 ZINC000653668607   -0.2000
5      C5      5.1468   -3.3243   -4.1326 C.ar     1 ZINC000653668607   -0.0800
6      C6      3.8615   -3.0698   -3.6713 C.ar     1 ZINC000653668607   -0.1000
7      C7      2.7853   -2.8242   -4.6966 C.3      1 ZINC000653668607   -0.0800
8      C8      1.5744   -2.1511   -4.0538 C.3      1 ZINC000653668607   -0.1200
9      C9      1.1696   -2.9624   -2.8173 C.3      1 ZINC000653668607   -0.1100
10     C10     2.2442   -2.7789   -1.7477 C.3      1 ZINC000653668607   -0.0600
11     H11     2.2109   -1.7545   -1.3768 H        1 ZINC000653668607    0.1000
12     C12     1.9785   -3.7287   -0.6083 C.2      1 ZINC000653668607    0.5200
13     O13     1.9219   -4.9226   -0.8146 O.2      1 ZINC000653668607   -0.5100
14     N14     1.8037   -3.2516    0.6400 N.am     1 ZINC000653668607   -0.6700
15     C15     1.6701   -4.1370    1.7151 C.ar     1 ZINC000653668607    0.1500
16     C16     2.3609   -5.3421    1.7133 C.ar     1 ZINC000653668607   -0.1100
17     C17     2.2294   -6.2171    2.7747 C.ar     1 ZINC000653668607   -0.0900
18     C18     1.4111   -5.8967    3.8405 C.ar     1 ZINC000653668607   -0.1200
19     C19     0.7171   -4.6931    3.8481 C.ar     1 ZINC000653668607    0.1700
20     N20    -0.1121   -4.3694    4.9280 N.am     1 ZINC000653668607   -0.5800
21     C21    -1.5204   -4.7671    4.8950 C.3      1 ZINC000653668607    0.1100
22     C22    -2.0153   -4.9844    6.3289 C.3      1 ZINC000653668607   -0.1500
23     C23    -1.7528   -3.7075    7.1344 C.3      1 ZINC000653668607    0.1100
24     N24    -0.3318   -3.3674    7.0459 N.am     1 ZINC000653668607   -0.7400
25     C25     0.4012   -3.7059    5.9747 C.2      1 ZINC000653668607    0.7100
26     O26     1.5750   -3.3900    5.9470 O.2      1 ZINC000653668607   -0.5800
27     C27     0.8518   -3.8097    2.7870 C.ar     1 ZINC000653668607   -0.1300
28     C28     3.6110   -3.0570   -2.3168 C.ar     1 ZINC000653668607   -0.0300
29     C29     4.6421   -3.3124   -1.4236 C.ar     1 ZINC000653668607   -0.1500
30     H30     8.1831   -4.9347   -2.1970 H        1 ZINC000653668607    0.0600
31     H31     8.5478   -3.1937   -2.1310 H        1 ZINC000653668607    0.0600
32     H32     8.9337   -4.2371   -0.7415 H        1 ZINC000653668607    0.1000
33     H33     7.1713   -3.7667   -3.6146 H        1 ZINC000653668607    0.1300
34     H34     5.3427   -3.3294   -5.1947 H        1 ZINC000653668607    0.1300
35     H35     3.1787   -2.1805   -5.4834 H        1 ZINC000653668607    0.0800
36     H36     2.4790   -3.7758   -5.1311 H        1 ZINC000653668607    0.0800
37     H37     1.8337   -1.1348   -3.7572 H        1 ZINC000653668607    0.0700
38     H38     0.7478   -2.1272   -4.7639 H        1 ZINC000653668607    0.0800
39     H39     0.2116   -2.6039   -2.4406 H        1 ZINC000653668607    0.0700
40     H40     1.0897   -4.0172   -3.0803 H        1 ZINC000653668607    0.0800
41     H41     1.7706   -2.2943    0.7931 H        1 ZINC000653668607    0.4100
42     H42     3.0011   -5.5956    0.8813 H        1 ZINC000653668607    0.1400
43     H43     2.7673   -7.1536    2.7708 H        1 ZINC000653668607    0.1300
44     H44     1.3104   -6.5826    4.6686 H        1 ZINC000653668607    0.1200
45     H45    -2.1096   -3.9818    4.4214 H        1 ZINC000653668607    0.0700
46     H46    -1.6243   -5.6931    4.3295 H        1 ZINC000653668607    0.0900
47     H47    -3.0841   -5.1977    6.3189 H        1 ZINC000653668607    0.1000
48     H48    -1.4771   -5.8185    6.7794 H        1 ZINC000653668607    0.0800
49     H49    -2.3489   -2.8909    6.7271 H        1 ZINC000653668607    0.0700
50     H50    -2.0236   -3.8725    8.1773 H        1 ZINC000653668607    0.0900
51     H51     0.0893   -2.8909    7.7784 H        1 ZINC000653668607    0.4200
52     H52     0.3136   -2.8734    2.7908 H        1 ZINC000653668607    0.1300
53     H53     4.4442   -3.3103   -0.3619 H        1 ZINC000653668607    0.1200
@<TRIPOS>BOND
1     1     2     1
2     1     30    1
3     1     31    1
4     1     32    1
5     2     3     1
6     3     29    ar
7     3     4     ar
8     4     5     ar
9     4     33    1
10    5     6     ar
11    5     34    1
12    6     28    ar
13    6     7     1
14    7     8     1
15    7     35    1
16    7     36    1
17    8     9     1
18    8     37    1
19    8     38    1
20    9     10    1
21    9     39    1
22    9     40    1
23    10    11    1
24    10    12    1
25    10    28    1
26    12    13    2
27    12    14    am
28    14    15    1
29    14    41    1
30    15    27    ar
31    15    16    ar
32    16    17    ar
33    16    42    1
34    17    18    ar
35    17    43    1
36    18    19    ar
37    18    44    1
38    19    20    1
39    19    27    ar
40    20    25    am
41    20    21    1
42    21    22    1
43    21    45    1
44    21    46    1
45    22    23    1
46    22    47    1
47    22    48    1
48    23    24    1
49    23    49    1
50    23    50    1
51    24    25    am
52    24    51    1
53    25    26    2
54    27    52    1
55    28    29    ar
56    29    53    1
@<TRIPOS>SUBSTRUCTURE
1   ZINC000653668607 1     RESIDUE    1   A     ZIN   1
@<TRIPOS>MOLECULE
ZINC000444542200
45	46	1	0	0
SMALL
USER_CHARGES
@<TRIPOS>ATOM
1      C1      3.3981    1.6643   -1.9923 C.3      1 ZINC000444542200    0.0300
2      O2      3.5305    0.2437   -2.0726 O.3      1 ZINC000444542200   -0.3100
3      C3      2.3820   -0.4820   -2.1065 C.ar     1 ZINC000444542200    0.1800
4      C4      2.4382   -1.8655   -2.1785 C.ar     1 ZINC000444542200   -0.1700
5      C5      1.2650   -2.6066   -2.2127 C.ar     1 ZINC000444542200    0.2300
6      N6      1.3211   -4.0030   -2.2848 N.am     1 ZINC000444542200   -0.5800
7      C7      0.8278   -4.8145   -1.1693 C.3      1 ZINC000444542200    0.0700
8      C8      1.8289   -4.6013   -3.3805 C.2      1 ZINC000444542200    0.7100
9      O9      2.3265   -3.9304   -4.2641 O.2      1 ZINC000444542200   -0.5500
10     N10     1.7850   -5.9433   -3.4969 N.am     1 ZINC000444542200   -0.7300
11     C11     2.3370   -6.5937   -4.6880 C.3      1 ZINC000444542200    0.1700
12     H12     3.2135   -6.0430   -5.0294 H        1 ZINC000444542200    0.1500
13     C13     2.7325   -8.0081   -4.3502 C.ar     1 ZINC000444542200   -0.1300
14     C14     2.1142   -8.6676   -3.3047 C.ar     1 ZINC000444542200   -0.0800
15     C15     2.4760   -9.9652   -2.9935 C.ar     1 ZINC000444542200   -0.0900
16     C16     3.4566  -10.6057   -3.7273 C.ar     1 ZINC000444542200   -0.1100
17     C17     4.0777   -9.9480   -4.7749 C.ar     1 ZINC000444542200    0.0800
18     F18     5.0363  -10.5734   -5.4926 F        1 ZINC000444542200   -0.1200
19     C19     3.7109   -8.6487   -5.0906 C.ar     1 ZINC000444542200    0.1000
20     F20     4.3157   -8.0047   -6.1127 F        1 ZINC000444542200   -0.1100
21     C21     1.2815   -6.6099   -5.7955 C.3      1 ZINC000444542200    0.4400
22     F22     0.9143   -5.2969   -6.1091 F        1 ZINC000444542200   -0.1600
23     F23     1.8086   -7.2310   -6.9329 F        1 ZINC000444542200   -0.1700
24     F24     0.1565   -7.3167   -5.3573 F        1 ZINC000444542200   -0.1800
25     C25     0.0363   -1.9620   -2.1748 C.ar     1 ZINC000444542200   -0.1900
26     C26    -0.0185   -0.5785   -2.1029 C.ar     1 ZINC000444542200    0.1800
27     O27    -1.2214    0.0527   -2.0658 O.3      1 ZINC000444542200   -0.3100
28     C28    -1.2033    1.4796   -1.9919 C.3      1 ZINC000444542200    0.0300
29     C29     1.1540    0.1611   -2.0634 C.ar     1 ZINC000444542200   -0.2900
30     H30     2.8477    2.0275   -2.8602 H        1 ZINC000444542200    0.0600
31     H31     2.8580    1.9281   -1.0830 H        1 ZINC000444542200    0.0600
32     H32     4.3877    2.1209   -1.9725 H        1 ZINC000444542200    0.1000
33     H33     3.3946   -2.3663   -2.2082 H        1 ZINC000444542200    0.1300
34     H34    -0.2301   -5.0313   -1.3177 H        1 ZINC000444542200    0.0700
35     H35     1.3874   -5.7488   -1.1244 H        1 ZINC000444542200    0.0700
36     H36     0.9591   -4.2671   -0.2359 H        1 ZINC000444542200    0.0900
37     H37     1.3880   -6.4786   -2.7921 H        1 ZINC000444542200    0.4100
38     H38     1.3480   -8.1687   -2.7300 H        1 ZINC000444542200    0.1400
39     H39     1.9920  -10.4788   -2.1760 H        1 ZINC000444542200    0.1500
40     H40     3.7386  -11.6192   -3.4830 H        1 ZINC000444542200    0.1500
41     H41    -0.8769   -2.5381   -2.2018 H        1 ZINC000444542200    0.1400
42     H42    -0.6881    1.8821   -2.8641 H        1 ZINC000444542200    0.0600
43     H43    -2.2263    1.8553   -1.9688 H        1 ZINC000444542200    0.1000
44     H44    -0.6817    1.7900   -1.0865 H        1 ZINC000444542200    0.0600
45     H45     1.1108    1.2388   -2.0074 H        1 ZINC000444542200    0.1400
@<TRIPOS>BOND
1     1     2     1
2     1     30    1
3     1     31    1
4     1     32    1
5     2     3     1
6     3     29    ar
7     3     4     ar
8     4     5     ar
9     4     33    1
10    5     6     1
11    5     25    ar
12    6     7     1
13    6     8     am
14    7     34    1
15    7     35    1
16    7     36    1
17    8     9     2
18    8     10    am
19    10    11    1
20    10    37    1
21    11    12    1
22    11    13    1
23    11    21    1
24    13    19    ar
25    13    14    ar
26    14    15    ar
27    14    38    1
28    15    16    ar
29    15    39    1
30    16    17    ar
31    16    40    1
32    17    18    1
33    17    19    ar
34    19    20    1
35    21    22    1
36    21    23    1
37    21    24    1
38    25    26    ar
39    25    41    1
40    26    27    1
41    26    29    ar
42    27    28    1
43    28    42    1
44    28    43    1
45    28    44    1
46    29    45    1
@<TRIPOS>SUBSTRUCTURE
1   ZINC000444542200 1     RESIDUE    1   A     ZIN   1
@<TRIPOS>MOLECULE
ZINC000007167963
39	41	1	0	0
SMALL
USER_CHARGES
@<TRIPOS>ATOM
1      C1     -0.0184    1.5028    0.0103 C.3      1 ZINC000007167963   -0.0800
2      C2      0.0021   -0.0041    0.0020 C.2      1 ZINC000007167963    0.0900
3      C3     -1.0909   -0.8150    0.0026 C.2      1 ZINC000007167963   -0.1500
4      C4     -2.5096   -0.4007    0.0111 C.2      1 ZINC000007167963    0.2600
5      N5     -2.9585    0.8308    0.0138 N.2      1 ZINC000007167963   -0.2700
6      N6     -4.2449    0.8172    0.0207 N.2      1 ZINC000007167963   -0.2800
7      C7     -4.6689   -0.4239    0.0227 C.2      1 ZINC000007167963    0.1200
8      S8     -6.3500   -0.9515    0.0307 S.3      1 ZINC000007167963    0.1500
9      C9     -7.1836    0.6552    0.0355 C.3      1 ZINC000007167963   -0.1200
10     H10    -6.8236    1.2488    0.8758 H        1 ZINC000007167963    0.1400
11     C11    -6.8837    1.3892   -1.2730 C.3      1 ZINC000007167963   -0.1500
12     C12    -8.6707    0.4492    0.1665 C.2      1 ZINC000007167963    0.5300
13     O13    -9.1608   -0.6249   -0.1110 O.2      1 ZINC000007167963   -0.4900
14     N14    -9.4559    1.4586    0.5920 N.am     1 ZINC000007167963   -0.6100
15     C15   -10.8242    1.2690    0.7125 C.2      1 ZINC000007167963    0.0800
16     C16   -11.7102    2.2282    1.1296 C.2      1 ZINC000007167963   -0.2400
17     C17   -11.3152    3.5896    1.5042 C.2      1 ZINC000007167963    0.5900
18     N18   -12.2482    4.4760    1.9046 N.am     1 ZINC000007167963   -0.8400
19     O19   -10.1447    3.9193    1.4536 O.2      1 ZINC000007167963   -0.5600
20     C20   -13.0765    1.7544    1.1598 C.2      1 ZINC000007167963   -0.0900
21     C21   -13.1985    0.4906    0.7793 C.2      1 ZINC000007167963   -0.2800
22     S22   -11.6362   -0.1864    0.3555 S.3      1 ZINC000007167963    0.3000
23     O23    -3.5829   -1.2216    0.0116 O.3      1 ZINC000007167963   -0.2000
24     C24    -0.5678   -2.1874   -0.0078 C.2      1 ZINC000007167963   -0.1800
25     C25     0.7704   -2.0739   -0.0136 C.2      1 ZINC000007167963   -0.0300
26     O26     1.1000   -0.7734   -0.0131 O.3      1 ZINC000007167963   -0.1700
27     H27     1.0042    1.8801    0.0026 H        1 ZINC000007167963    0.0800
28     H28    -0.5455    1.8639   -0.8728 H        1 ZINC000007167963    0.1000
29     H29    -0.5286    1.8543    0.9071 H        1 ZINC000007167963    0.1000
30     H30    -5.8081    1.5382   -1.3678 H        1 ZINC000007167963    0.0900
31     H31    -7.2437    0.7956   -2.1133 H        1 ZINC000007167963    0.0800
32     H32    -7.3856    2.3567   -1.2701 H        1 ZINC000007167963    0.0800
33     H33    -9.0638    2.3176    0.8139 H        1 ZINC000007167963    0.4400
34     H34   -13.1811    4.2132    1.9449 H        1 ZINC000007167963    0.4000
35     H35   -11.9869    5.3766    2.1524 H        1 ZINC000007167963    0.4100
36     H36   -13.9122    2.3678    1.4624 H        1 ZINC000007167963    0.1500
37     H37   -14.1334   -0.0482    0.7327 H        1 ZINC000007167963    0.1700
38     H38    -1.1425   -3.1018   -0.0097 H        1 ZINC000007167963    0.1600
39     H39     1.4690   -2.8975   -0.0217 H        1 ZINC000007167963    0.2200
@<TRIPOS>BOND
1     1     2     1
2     1     27    1
3     1     28    1
4     1     29    1
5     2     26    1
6     2     3     2
7     3     4     1
8     3     24    1
9     4     23    1
10    4     5     2
11    5     6     1
12    6     7     2
13    7     8     1
14    7     23    1
15    8     9     1
16    9     10    1
17    9     11    1
18    9     12    1
19    11    30    1
20    11    31    1
21    11    32    1
22    12    13    2
23    12    14    am
24    14    15    1
25    14    33    1
26    15    22    1
27    15    16    2
28    16    17    1
29    16    20    1
30    17    18    am
31    17    19    2
32    18    34    1
33    18    35    1
34    20    21    2
35    20    36    1
36    21    22    1
37    21    37    1
38    24    25    2
39    24    38    1
40    25    26    1
41    25    39    1
@<TRIPOS>SUBSTRUCTURE
1   ZINC000007167963 1     RESIDUE    1   A     ZIN   1
@<TRIPOS>MOLECULE
ZINC000032503012
53	54	1	0	0
SMALL
USER_CHARGES
@<TRIPOS>ATOM
1      C1     -4.4218   -0.5027   -2.5367 C.3      1 ZINC000032503012   -0.1200
2      C2     -3.2803   -0.3649   -1.5625 C.ar     1 ZINC000032503012   -0.0500
3      C3     -2.5184    0.7886   -1.5502 C.ar     1 ZINC000032503012   -0.1600
4      C4     -1.4702    0.9182   -0.6575 C.ar     1 ZINC000032503012   -0.0700
5      C5     -1.1820   -0.1052    0.2243 C.ar     1 ZINC000032503012   -0.1500
6      C6     -1.9452   -1.2639    0.2138 C.ar     1 ZINC000032503012    0.1300
7      O7     -1.6639   -2.2721    1.0807 O.3      1 ZINC000032503012   -0.2800
8      C8     -2.4938   -3.4335    1.0163 C.3      1 ZINC000032503012    0.0700
9      H9     -3.5196   -3.1356    0.7991 H        1 ZINC000032503012    0.1100
10     C10    -1.9873   -4.3617   -0.0895 C.3      1 ZINC000032503012   -0.1800
11     C11    -2.4498   -4.1562    2.3380 C.2      1 ZINC000032503012    0.5200
12     O12    -1.7742   -3.7196    3.2457 O.2      1 ZINC000032503012   -0.4900
13     N13    -3.1612   -5.2877    2.5114 N.am     1 ZINC000032503012   -0.6700
14     C14    -3.2144   -5.8947    3.7710 C.ar     1 ZINC000032503012    0.1300
15     C15    -3.2354   -5.1140    4.9191 C.ar     1 ZINC000032503012   -0.0600
16     C16    -3.2879   -5.7162    6.1611 C.ar     1 ZINC000032503012   -0.1200
17     C17    -3.3190   -7.0948    6.2619 C.ar     1 ZINC000032503012   -0.0300
18     C18    -3.2978   -7.8752    5.1203 C.ar     1 ZINC000032503012   -0.6600
19     S19    -3.3376   -9.6317    5.2541 S.o2     1 ZINC000032503012    2.7000
20     O20    -2.5346  -10.1331    4.1943 O.2      1 ZINC000032503012   -0.9600
21     O21    -3.0981   -9.9355    6.6214 O.2      1 ZINC000032503012   -0.9500
22     N22    -4.8893  -10.1127    4.9330 N.am     1 ZINC000032503012   -1.1100
23     C23    -5.9720   -9.7562    5.8533 C.3      1 ZINC000032503012    0.1700
24     C24    -5.9614   -8.2451    6.0924 C.3      1 ZINC000032503012   -0.1900
25     C25    -7.3144  -10.1670    5.2450 C.3      1 ZINC000032503012   -0.1500
26     C26    -5.7708  -10.4845    7.1838 C.3      1 ZINC000032503012   -0.1800
27     C27    -3.2520   -7.2792    3.8754 C.ar     1 ZINC000032503012   -0.0400
28     C28    -2.9996   -1.3891   -0.6787 C.ar     1 ZINC000032503012   -0.2100
29     H29    -5.3349   -0.1170   -2.0834 H        1 ZINC000032503012    0.0700
30     H30    -4.1980    0.0631   -3.4411 H        1 ZINC000032503012    0.0700
31     H31    -4.5581   -1.5540   -2.7902 H        1 ZINC000032503012    0.0700
32     H32    -2.7419    1.5897   -2.2391 H        1 ZINC000032503012    0.1300
33     H33    -0.8762    1.8201   -0.6500 H        1 ZINC000032503012    0.1300
34     H34    -0.3631   -0.0037    0.9210 H        1 ZINC000032503012    0.1300
35     H35    -2.0192   -3.8390   -1.0455 H        1 ZINC000032503012    0.0800
36     H36    -0.9616   -4.6596    0.1277 H        1 ZINC000032503012    0.0800
37     H37    -2.6204   -5.2476   -0.1386 H        1 ZINC000032503012    0.0800
38     H38    -3.6364   -5.6814    1.7629 H        1 ZINC000032503012    0.4100
39     H39    -3.2104   -4.0371    4.8411 H        1 ZINC000032503012    0.1400
40     H40    -3.3043   -5.1096    7.0545 H        1 ZINC000032503012    0.1400
41     H41    -3.3597   -7.5632    7.2342 H        1 ZINC000032503012    0.1500
42     H42    -5.0814  -10.6304    4.1355 H        1 ZINC000032503012    0.4200
43     H43    -5.9251   -7.7260    5.1346 H        1 ZINC000032503012    0.0700
44     H44    -6.8652   -7.9557    6.6285 H        1 ZINC000032503012    0.0800
45     H45    -5.0862   -7.9770    6.6843 H        1 ZINC000032503012    0.0700
46     H46    -7.3220  -11.2435    5.0747 H        1 ZINC000032503012    0.0700
47     H47    -8.1199   -9.9018    5.9298 H        1 ZINC000032503012    0.0700
48     H48    -7.4577   -9.6481    4.2972 H        1 ZINC000032503012    0.0600
49     H49    -4.9207  -10.0508    7.7105 H        1 ZINC000032503012    0.0900
50     H50    -6.6679  -10.3805    7.7942 H        1 ZINC000032503012    0.0700
51     H51    -5.5805  -11.5409    6.9946 H        1 ZINC000032503012    0.0600
52     H52    -3.2354   -7.8891    2.9843 H        1 ZINC000032503012    0.1400
53     H53    -3.5951   -2.2901   -0.6888 H        1 ZINC000032503012    0.1300
@<TRIPOS>BOND
1     1     2     1
2     1     29    1
3     1     30    1
4     1     31    1
5     2     28    ar
6     2     3     ar
7     3     4     ar
8     3     32    1
9     4     5     ar
10    4     33    1
11    5     6     ar
12    5     34    1
13    6     7     1
14    6     28    ar
15    7     8     1
16    8     9     1
17    8     10    1
18    8     11    1
19    10    35    1
20    10    36    1
21    10    37    1
22    11    12    2
23    11    13    am
24    13    14    1
25    13    38    1
26    14    27    ar
27    14    15    ar
28    15    16    ar
29    15    39    1
30    16    17    ar
31    16    40    1
32    17    18    ar
33    17    41    1
34    18    19    1
35    18    27    ar
36    19    20    2
37    19    21    2
38    19    22    am
39    22    23    1
40    22    42    1
41    23    24    1
42    23    25    1
43    23    26    1
44    24    43    1
45    24    44    1
46    24    45    1
47    25    46    1
48    25    47    1
49    25    48    1
50    26    49    1
51    26    50    1
52    26    51    1
53    27    52    1
54    28    53    1
@<TRIPOS>SUBSTRUCTURE
1   ZINC000032503012 1     RESIDUE    1   A     ZIN   1
@<TRIPOS>MOLECULE
ZINC000768148687
43	44	1	0	0
SMALL
USER_CHARGES
@<TRIPOS>ATOM
1      C1     -1.3422    2.5254   -0.0393 C.3      1 ZINC000768148687   -0.1800
2      C2     -1.0356    1.0266   -0.0192 C.3      1 ZINC000768148687    0.1100
3      N3     -2.2909    0.2713   -0.0157 N.pl3    1 ZINC000768148687   -0.3100
4      N4     -2.9998   -0.1307    1.1218 N.2      1 ZINC000768148687   -0.2000
5      C5     -4.0668   -0.7807    0.7473 C.2      1 ZINC000768148687    0.0200
6      C6     -5.1024   -1.3842    1.6607 C.3      1 ZINC000768148687    0.5500
7      F7     -4.8092   -1.0457    2.9861 F        1 ZINC000768148687   -0.1600
8      F8     -6.3670   -0.8908    1.3223 F        1 ZINC000768148687   -0.1600
9      F9     -5.0924   -2.7762    1.5218 F        1 ZINC000768148687   -0.1500
10     C10    -4.0814   -0.8199   -0.6655 C.2      1 ZINC000768148687   -0.1800
11     C11    -5.1058   -1.4546   -1.5123 C.2      1 ZINC000768148687    0.5300
12     O12    -6.0712   -0.8150   -1.8807 O.2      1 ZINC000768148687   -0.4700
13     O13    -4.9726   -2.7446   -1.8786 O.3      1 ZINC000768148687   -0.3400
14     C14    -6.0203   -3.3043   -2.7136 C.3      1 ZINC000768148687    0.0200
15     C15    -5.6979   -4.7673   -3.0242 C.3      1 ZINC000768148687    0.0600
16     N16    -5.7421   -5.5526   -1.7835 N.3      1 ZINC000768148687   -0.5300
17     C17    -6.9554   -5.2491   -1.0108 C.3      1 ZINC000768148687    0.0100
18     C18    -6.9906   -6.1301    0.2408 C.3      1 ZINC000768148687    0.0600
19     O19    -5.7977   -5.9180    1.0006 O.3      1 ZINC000768148687   -0.3800
20     C20    -4.5968   -6.2047    0.2788 C.3      1 ZINC000768148687    0.0600
21     C21    -4.5373   -5.3244   -0.9724 C.3      1 ZINC000768148687    0.0100
22     C22    -2.9576   -0.1464   -1.1032 C.2      1 ZINC000768148687    0.0600
23     C23    -2.5498    0.0706   -2.5376 C.3      1 ZINC000768148687    0.3400
24     F24    -3.6920    0.1304   -3.3432 F        1 ZINC000768148687   -0.1700
25     F25    -1.8406    1.2717   -2.6442 F        1 ZINC000768148687   -0.1800
26     H26    -0.4082    3.0873   -0.0419 H        1 ZINC000768148687    0.0900
27     H27    -1.9142    2.7673   -0.9351 H        1 ZINC000768148687    0.0700
28     H28    -1.9226    2.7894    0.8447 H        1 ZINC000768148687    0.0700
29     H29    -0.4552    0.7625   -0.9032 H        1 ZINC000768148687    0.1100
30     H30    -0.4636    0.7847    0.8766 H        1 ZINC000768148687    0.1200
31     H31    -6.9736   -3.2459   -2.1884 H        1 ZINC000768148687    0.0800
32     H32    -6.0831   -2.7406   -3.6444 H        1 ZINC000768148687    0.0800
33     H33    -6.4315   -5.1594   -3.7286 H        1 ZINC000768148687    0.1100
34     H34    -4.7019   -4.8349   -3.4617 H        1 ZINC000768148687    0.0900
35     H35    -6.9467   -4.1995   -0.7170 H        1 ZINC000768148687    0.0500
36     H36    -7.8356   -5.4494   -1.6218 H        1 ZINC000768148687    0.0900
37     H37    -7.8588   -5.8685    0.8457 H        1 ZINC000768148687    0.1000
38     H38    -7.0534   -7.1778   -0.0533 H        1 ZINC000768148687    0.0600
39     H39    -3.7337   -5.9970    0.9112 H        1 ZINC000768148687    0.1000
40     H40    -4.5900   -7.2545   -0.0142 H        1 ZINC000768148687    0.0600
41     H41    -3.6524   -5.5797   -1.5553 H        1 ZINC000768148687    0.0800
42     H42    -4.4900   -4.2760   -0.6779 H        1 ZINC000768148687    0.0700
43     H43    -1.9175   -0.7549   -2.8645 H        1 ZINC000768148687    0.1500
@<TRIPOS>BOND
1     1     2     1
2     1     26    1
3     1     27    1
4     1     28    1
5     2     3     1
6     2     29    1
7     2     30    1
8     3     22    1
9     3     4     1
10    4     5     2
11    5     6     1
12    5     10    1
13    6     7     1
14    6     8     1
15    6     9     1
16    10    11    1
17    10    22    2
18    11    12    2
19    11    13    1
20    13    14    1
21    14    15    1
22    14    31    1
23    14    32    1
24    15    16    1
25    15    33    1
26    15    34    1
27    16    21    1
28    16    17    1
29    17    18    1
30    17    35    1
31    17    36    1
32    18    19    1
33    18    37    1
34    18    38    1
35    19    20    1
36    20    21    1
37    20    39    1
38    20    40    1
39    21    41    1
40    21    42    1
41    22    23    1
42    23    24    1
43    23    25    1
44    23    43    1
@<TRIPOS>SUBSTRUCTURE
1   ZINC000768148687 1     RESIDUE    1   A     ZIN   1
@<TRIPOS>MOLECULE
ZINC000840649129
47	48	1	0	0
SMALL
USER_CHARGES
@<TRIPOS>ATOM
1      C1      0.6472    1.6589    0.6474 C.3      1 ZINC000840649129    0.0200
2      O2      0.5929    0.2605    0.3584 O.3      1 ZINC000840649129   -0.2900
3      C3     -0.5163   -0.1946   -0.2780 C.ar     1 ZINC000840649129    0.1400
4      C4     -1.5299    0.6861   -0.6231 C.ar     1 ZINC000840649129   -0.1700
5      C5     -2.6588    0.2253   -1.2703 C.ar     1 ZINC000840649129   -0.1200
6      C6     -2.7886   -1.1241   -1.5816 C.ar     1 ZINC000840649129    0.1700
7      N7     -3.9368   -1.5819   -2.2380 N.pl3    1 ZINC000840649129   -0.8800
8      C8     -1.7845   -2.0152   -1.2442 C.ar     1 ZINC000840649129   -0.1000
9      C9     -0.6371   -1.5552   -0.5929 C.ar     1 ZINC000840649129   -0.1200
10     C10     0.4370   -2.4975   -0.2306 C.2      1 ZINC000840649129    0.5100
11     O11     1.4336   -2.0942    0.3358 O.2      1 ZINC000840649129   -0.4800
12     O12     0.3137   -3.8061   -0.5274 O.3      1 ZINC000840649129   -0.3200
13     C13     1.4103   -4.6759   -0.1408 C.3      1 ZINC000840649129    0.0800
14     H14     2.3437   -4.1133   -0.1579 H        1 ZINC000840649129    0.1200
15     C15     1.5011   -5.8292   -1.1066 C.2      1 ZINC000840649129    0.5200
16     O16     0.6101   -6.0219   -1.9066 O.2      1 ZINC000840649129   -0.4900
17     N17     2.5725   -6.6464   -1.0814 N.am     1 ZINC000840649129   -0.6600
18     C18     2.6676   -7.7042   -1.9933 C.ar     1 ZINC000840649129    0.1600
19     C19     1.5358   -8.1497   -2.6622 C.ar     1 ZINC000840649129   -0.1400
20     C20     1.6328   -9.1937   -3.5620 C.ar     1 ZINC000840649129   -0.0900
21     C21     2.8553   -9.7950   -3.7970 C.ar     1 ZINC000840649129   -0.1300
22     C22     3.9853   -9.3544   -3.1322 C.ar     1 ZINC000840649129   -0.0900
23     C23     3.8964   -8.3070   -2.2353 C.ar     1 ZINC000840649129   -0.0700
24     Cl24    5.3151   -7.7538   -1.4015 Cl       1 ZINC000840649129   -0.0700
25     C25     1.1632   -5.2113    1.2710 C.3      1 ZINC000840649129   -0.1100
26     C26     2.3817   -6.0131    1.7328 C.3      1 ZINC000840649129   -0.1600
27     C27     0.9314   -4.0397    2.2274 C.3      1 ZINC000840649129   -0.1500
28     H28     1.5837    1.8888    1.1558 H        1 ZINC000840649129    0.1000
29     H29     0.5903    2.2246   -0.2825 H        1 ZINC000840649129    0.0600
30     H30    -0.1908    1.9300    1.2896 H        1 ZINC000840649129    0.0600
31     H31    -1.4362    1.7352   -0.3846 H        1 ZINC000840649129    0.1400
32     H32    -3.4454    0.9161   -1.5360 H        1 ZINC000840649129    0.1300
33     H33    -4.6410   -0.9584   -2.4753 H        1 ZINC000840649129    0.4000
34     H34    -4.0285   -2.5227   -2.4556 H        1 ZINC000840649129    0.4000
35     H35    -1.8862   -3.0627   -1.4868 H        1 ZINC000840649129    0.1400
36     H36     3.2778   -6.5016   -0.4314 H        1 ZINC000840649129    0.4200
37     H37     0.5802   -7.6810   -2.4792 H        1 ZINC000840649129    0.1700
38     H38     0.7523   -9.5407   -4.0823 H        1 ZINC000840649129    0.1300
39     H39     2.9280  -10.6108   -4.5009 H        1 ZINC000840649129    0.1300
40     H40     4.9388   -9.8264   -3.3177 H        1 ZINC000840649129    0.1400
41     H41     0.2844   -5.8560    1.2665 H        1 ZINC000840649129    0.0900
42     H42     3.2805   -5.4074    1.6170 H        1 ZINC000840649129    0.0700
43     H43     2.2606   -6.2868    2.7809 H        1 ZINC000840649129    0.0800
44     H44     2.4721   -6.9164    1.1295 H        1 ZINC000840649129    0.0600
45     H45     0.0633   -3.4684    1.8984 H        1 ZINC000840649129    0.0500
46     H46     0.7554   -4.4211    3.2332 H        1 ZINC000840649129    0.0600
47     H47     1.8102   -3.3949    2.2319 H        1 ZINC000840649129    0.0700
@<TRIPOS>BOND
1     1     2     1
2     1     28    1
3     1     29    1
4     1     30    1
5     2     3     1
6     3     9     ar
7     3     4     ar
8     4     5     ar
9     4     31    1
10    5     6     ar
11    5     32    1
12    6     7     1
13    6     8     ar
14    7     33    1
15    7     34    1
16    8     9     ar
17    8     35    1
18    9     10    1
19    10    11    2
20    10    12    1
21    12    13    1
22    13    14    1
23    13    15    1
24    13    25    1
25    15    16    2
26    15    17    am
27    17    18    1
28    17    36    1
29    18    23    ar
30    18    19    ar
31    19    20    ar
32    19    37    1
33    20    21    ar
34    20    38    1
35    21    22    ar
36    21    39    1
37    22    23    ar
38    22    40    1
39    23    24    1
40    25    26    1
41    25    27    1
42    25    41    1
43    26    42    1
44    26    43    1
45    26    44    1
46    27    45    1
47    27    46    1
48    27    47    1
@<TRIPOS>SUBSTRUCTURE
1   ZINC000840649129 1     RESIDUE    1   A     ZIN   1
@<TRIPOS>MOLECULE
ZINC000057429281
39	39	1	0	0
SMALL
USER_CHARGES
@<TRIPOS>ATOM
1      C1     -1.0299    3.8069   -1.3315 C.3      1 ZINC000057429281   -0.1500
2      C2     -0.5185    2.5409   -0.6412 C.3      1 ZINC000057429281   -0.0400
3      H3      0.1700    2.0180   -1.3050 H        1 ZINC000057429281    0.0900
4      C4     -1.7004    1.6276   -0.3101 C.3      1 ZINC000057429281   -0.1300
5      C5     -2.3421    1.1531   -1.5885 C.2      1 ZINC000057429281    0.5200
6      O6     -1.8978    1.5103   -2.6589 O.2      1 ZINC000057429281   -0.5300
7      N7     -3.4097    0.3318   -1.5422 N.am     1 ZINC000057429281   -0.7000
8      C8     -4.0335   -0.1295   -2.7849 C.3      1 ZINC000057429281    0.1100
9      C9     -3.3020   -1.3452   -3.2930 C.2      1 ZINC000057429281    0.5200
10     N10    -3.3175   -1.6402   -4.6079 N.am     1 ZINC000057429281   -0.8500
11     O11    -2.6995   -2.0580   -2.5186 O.2      1 ZINC000057429281   -0.5100
12     C12    -5.4746   -0.4836   -2.5223 C.2      1 ZINC000057429281    0.5300
13     N13    -6.3681   -0.4633   -3.5311 N.am     1 ZINC000057429281   -0.8400
14     O14    -5.8303   -0.7868   -1.4032 O.2      1 ZINC000057429281   -0.5100
15     C15     0.1977    2.9166    0.6304 C.ar     1 ZINC000057429281   -0.0500
16     C16    -0.4785    3.5876    1.6321 C.ar     1 ZINC000057429281   -0.1200
17     C17     0.1784    3.9322    2.7986 C.ar     1 ZINC000057429281   -0.0700
18     C18     1.5114    3.6054    2.9635 C.ar     1 ZINC000057429281   -0.1900
19     C19     2.2277    3.9814    4.2350 C.3      1 ZINC000057429281    0.5100
20     F20     2.1002    2.9451    5.1661 F        1 ZINC000057429281   -0.1800
21     F21     3.5823    4.1978    3.9606 F        1 ZINC000057429281   -0.1800
22     F22     1.6654    5.1506    4.7586 F        1 ZINC000057429281   -0.1800
23     C23     2.1872    2.9332    1.9624 C.ar     1 ZINC000057429281   -0.0700
24     C24     1.5293    2.5852    0.7975 C.ar     1 ZINC000057429281   -0.1100
25     H25    -0.1879    4.4576   -1.5674 H        1 ZINC000057429281    0.0600
26     H26    -1.5479    3.5352   -2.2513 H        1 ZINC000057429281    0.0800
27     H27    -1.7184    4.3299   -0.6677 H        1 ZINC000057429281    0.0500
28     H28    -1.3471    0.7683    0.2598 H        1 ZINC000057429281    0.1000
29     H29    -2.4317    2.1794    0.2804 H        1 ZINC000057429281    0.1000
30     H30    -3.7651    0.0461   -0.6860 H        1 ZINC000057429281    0.4200
31     H31    -3.9843    0.6627   -3.5319 H        1 ZINC000057429281    0.1300
32     H32    -3.7375   -1.0324   -5.2365 H        1 ZINC000057429281    0.4000
33     H33    -2.9085   -2.4603   -4.9258 H        1 ZINC000057429281    0.4100
34     H34    -6.1001   -0.1530   -4.4102 H        1 ZINC000057429281    0.4000
35     H35    -7.2792   -0.7589   -3.3780 H        1 ZINC000057429281    0.4100
36     H36    -1.5200    3.8429    1.5033 H        1 ZINC000057429281    0.1400
37     H37    -0.3497    4.4570    3.5809 H        1 ZINC000057429281    0.1400
38     H38     3.2286    2.6775    2.0914 H        1 ZINC000057429281    0.1400
39     H39     2.0573    2.0600    0.0154 H        1 ZINC000057429281    0.1400
@<TRIPOS>BOND
1     1     2     1
2     1     25    1
3     1     26    1
4     1     27    1
5     2     3     1
6     2     4     1
7     2     15    1
8     4     5     1
9     4     28    1
10    4     29    1
11    5     6     2
12    5     7     am
13    7     8     1
14    7     30    1
15    8     9     1
16    8     12    1
17    8     31    1
18    9     10    am
19    9     11    2
20    10    32    1
21    10    33    1
22    12    13    am
23    12    14    2
24    13    34    1
25    13    35    1
26    15    24    ar
27    15    16    ar
28    16    17    ar
29    16    36    1
30    17    18    ar
31    17    37    1
32    18    19    1
33    18    23    ar
34    19    20    1
35    19    21    1
36    19    22    1
37    23    24    ar
38    23    38    1
39    24    39    1
@<TRIPOS>SUBSTRUCTURE
1   ZINC000057429281 1     RESIDUE    1   A     ZIN   1
@<TRIPOS>MOLECULE
ZINC000426805817
44	47	1	0	0
SMALL
USER_CHARGES
@<TRIPOS>ATOM
1      O1      0.0021   -0.0041    0.0020 O.co2    1 ZINC000426805817   -0.6300
2      C2     -0.0145    1.2150    0.0087 C.2      1 ZINC000426805817    0.5000
3      O3      1.0330    1.8389    0.0021 O.co2    1 ZINC000426805817   -0.6800
4      C4     -1.3296    1.9507    0.0190 C.3      1 ZINC000426805817   -0.0500
5      H5     -1.9730    1.5559   -0.7674 H        1 ZINC000426805817    0.1300
6      C6     -2.0092    1.7617    1.3767 C.3      1 ZINC000426805817   -0.0500
7      C7     -3.3772    2.3931    1.3460 C.2      1 ZINC000426805817   -0.1900
8      C8     -3.6941    3.6322    1.7535 C.2      1 ZINC000426805817    0.0500
9      N9     -5.0321    3.8546    1.5735 N.pl3    1 ZINC000426805817   -0.5900
10     C10    -5.6243    2.7351    1.0318 C.ar     1 ZINC000426805817    0.1100
11     C11    -6.9285    2.4296    0.6582 C.ar     1 ZINC000426805817   -0.1200
12     C12    -7.2202    1.1909    0.1307 C.ar     1 ZINC000426805817   -0.0700
13     C13    -6.2229    0.2384   -0.0336 C.ar     1 ZINC000426805817   -0.1100
14     Br14   -6.6501   -1.4544   -0.7602 Br       1 ZINC000426805817   -0.0400
15     C15    -4.9246    0.5200    0.3292 C.ar     1 ZINC000426805817   -0.0400
16     C16    -4.6123    1.7731    0.8598 C.ar     1 ZINC000426805817   -0.1000
17     N17    -1.0922    3.3814   -0.2149 N.4      1 ZINC000426805817   -0.4800
18     H18    -1.9618    3.8855   -0.1266 H        1 ZINC000426805817    0.4000
19     H19    -0.4319    3.7283    0.4646 H        1 ZINC000426805817    0.4200
20     C20    -0.5501    3.5733   -1.5667 C.3      1 ZINC000426805817    0.0400
21     C21    -0.3066    5.0410   -1.8066 C.ar     1 ZINC000426805817   -0.1600
22     C22     0.8393    5.6492   -1.3052 C.ar     1 ZINC000426805817    0.1100
23     N23     1.9108    5.1929   -0.5707 N.pl3    1 ZINC000426805817   -0.5900
24     C24     2.7841    6.2196   -0.3347 C.2      1 ZINC000426805817    0.0600
25     C25     2.3231    7.3500   -0.8929 C.2      1 ZINC000426805817   -0.2000
26     C26     1.0506    7.0205   -1.5393 C.ar     1 ZINC000426805817   -0.1100
27     C27     0.1138    7.7549   -2.2685 C.ar     1 ZINC000426805817   -0.0400
28     C28    -1.0052    7.1371   -2.7519 C.ar     1 ZINC000426805817   -0.1500
29     C29    -1.2156    5.7836   -2.5282 C.ar     1 ZINC000426805817   -0.0700
30     H30    -2.1050    0.6971    1.5900 H        1 ZINC000426805817    0.1200
31     H31    -1.4079    2.2351    2.1529 H        1 ZINC000426805817    0.0900
32     H32    -2.9963    4.3475    2.1630 H        1 ZINC000426805817    0.1700
33     H33    -5.4947    4.6781    1.7945 H        1 ZINC000426805817    0.4200
34     H34    -7.7120    3.1626    0.7819 H        1 ZINC000426805817    0.1300
35     H35    -8.2346    0.9581   -0.1576 H        1 ZINC000426805817    0.1400
36     H36    -4.1514   -0.2229    0.2001 H        1 ZINC000426805817    0.1400
37     H37     0.3893    3.0288   -1.6621 H        1 ZINC000426805817    0.1500
38     H38    -1.2634    3.1986   -2.3008 H        1 ZINC000426805817    0.1300
39     H39     2.0288    4.2797   -0.2655 H        1 ZINC000426805817    0.4300
40     H40     3.7074    6.1332    0.2188 H        1 ZINC000426805817    0.1800
41     H41     2.7999    8.3188   -0.8695 H        1 ZINC000426805817    0.1500
42     H42     0.2727    8.8077   -2.4497 H        1 ZINC000426805817    0.1300
43     H43    -1.7297    7.7058   -3.3160 H        1 ZINC000426805817    0.1300
44     H44    -2.1049    5.3095   -2.9166 H        1 ZINC000426805817    0.1300
@<TRIPOS>BOND
1     1     2     ar
2     2     3     ar
3     2     4     1
4     4     5     1
5     4     6     1
6     4     17    1
7     6     7     1
8     6     30    1
9     6     31    1
10    7     16    1
11    7     8     2
12    8     9     1
13    8     32    1
14    9     10    1
15    9     33    1
16    10    16    ar
17    10    11    ar
18    11    12    ar
19    11    34    1
20    12    13    ar
21    12    35    1
22    13    14    1
23    13    15    ar
24    15    16    ar
25    15    36    1
26    17    18    1
27    17    19    1
28    17    20    1
29    20    21    1
30    20    37    1
31    20    38    1
32    21    29    ar
33    21    22    ar
34    22    26    ar
35    22    23    1
36    23    24    1
37    23    39    1
38    24    25    2
39    24    40    1
40    25    26    1
41    25    41    1
42    26    27    ar
43    27    28    ar
44    27    42    1
45    28    29    ar
46    28    43    1
47    29    44    1
@<TRIPOS>SUBSTRUCTURE
1   ZINC000426805817 1     RESIDUE    1   A     ZIN   1
@<TRIPOS>MOLECULE
ZINC000187810810
52	53	1	0	0
SMALL
USER_CHARGES
@<TRIPOS>ATOM
1      C1     -0.0187    1.5258    0.0104 C.3      1 ZINC000187810810   -0.1800
2      C2      0.0021   -0.0041    0.0020 C.3      1 ZINC000187810810    0.1400
3      C3      0.7421   -0.5109    1.2415 C.3      1 ZINC000187810810   -0.1800
4      C4     -1.4333   -0.5336    0.0129 C.3      1 ZINC000187810810   -0.1400
5      O5      0.6817   -0.4723   -1.1926 O.3      1 ZINC000187810810   -0.3600
6      C6      1.9630   -0.0923   -1.3556 C.2      1 ZINC000187810810    0.6500
7      O7      2.4986    0.6115   -0.5223 O.2      1 ZINC000187810810   -0.5600
8      N8      2.6515   -0.4924   -2.4429 N.am     1 ZINC000187810810   -0.6000
9      C9      2.0156   -1.3384   -3.4621 C.3      1 ZINC000187810810    0.1100
10     C10     2.8848   -2.5801   -3.6845 C.3      1 ZINC000187810810   -0.1400
11     C11     4.3108   -2.1445   -4.0296 C.3      1 ZINC000187810810    0.1800
12     C12     5.1736   -3.3817   -4.2863 C.3      1 ZINC000187810810   -0.1600
13     N13     4.2880   -1.3074   -5.2316 N.am     1 ZINC000187810810   -0.7100
14     C14     5.4374   -0.8057   -5.7253 C.2      1 ZINC000187810810    0.5500
15     O15     6.4929   -1.0478   -5.1732 O.2      1 ZINC000187810810   -0.5100
16     C16     5.4144    0.0392   -6.9384 C.ar     1 ZINC000187810810   -0.0900
17     C17     4.2036    0.3238   -7.5714 C.ar     1 ZINC000187810810   -0.0900
18     C18     4.1891    1.1133   -8.7029 C.ar     1 ZINC000187810810   -0.0900
19     C19     5.3713    1.6220   -9.2103 C.ar     1 ZINC000187810810   -0.0900
20     C20     6.5753    1.3432   -8.5877 C.ar     1 ZINC000187810810   -0.0800
21     C21     6.6031    0.5604   -7.4523 C.ar     1 ZINC000187810810   -0.1300
22     C22     7.9151    0.2581   -6.7753 C.3      1 ZINC000187810810    0.5200
23     F23     8.9554    0.8764   -7.4773 F        1 ZINC000187810810   -0.1800
24     F24     7.8854    0.7427   -5.4632 F        1 ZINC000187810810   -0.1600
25     F25     8.1226   -1.1253   -6.7569 F        1 ZINC000187810810   -0.1600
26     C26     4.8984   -1.3461   -2.8636 C.3      1 ZINC000187810810   -0.1500
27     C27     4.0503   -0.0858   -2.6347 C.3      1 ZINC000187810810    0.1300
28     H28     1.0039    1.9031    0.0027 H        1 ZINC000187810810    0.0900
29     H29    -0.5459    1.8868   -0.8726 H        1 ZINC000187810810    0.0600
30     H30    -0.5289    1.8773    0.9072 H        1 ZINC000187810810    0.0700
31     H31     0.2319   -0.1594    2.1383 H        1 ZINC000187810810    0.0700
32     H32     0.7568   -1.6008    1.2356 H        1 ZINC000187810810    0.0600
33     H33     1.7647   -0.1336    1.2338 H        1 ZINC000187810810    0.0900
34     H34    -1.9605   -0.1726   -0.8702 H        1 ZINC000187810810    0.0700
35     H35    -1.4185   -1.6235    0.0069 H        1 ZINC000187810810    0.0700
36     H36    -1.9435   -0.1821    0.9097 H        1 ZINC000187810810    0.0800
37     H37     1.0261   -1.6415   -3.1199 H        1 ZINC000187810810    0.1000
38     H38     1.9273   -0.7822   -4.3954 H        1 ZINC000187810810    0.0700
39     H39     2.8981   -3.1823   -2.7761 H        1 ZINC000187810810    0.0900
40     H40     2.4754   -3.1684   -4.5056 H        1 ZINC000187810810    0.0900
41     H41     4.7559   -3.9498   -5.1175 H        1 ZINC000187810810    0.0600
42     H42     6.1893   -3.0717   -4.5321 H        1 ZINC000187810810    0.0800
43     H43     5.1903   -4.0049   -3.3922 H        1 ZINC000187810810    0.0700
44     H44     3.4457   -1.1142   -5.6722 H        1 ZINC000187810810    0.4000
45     H45     3.2801   -0.0733   -7.1766 H        1 ZINC000187810810    0.1400
46     H46     3.2528    1.3343   -9.1937 H        1 ZINC000187810810    0.1400
47     H47     5.3545    2.2391  -10.0964 H        1 ZINC000187810810    0.1400
48     H48     7.4947    1.7431   -8.9891 H        1 ZINC000187810810    0.1500
49     H49     4.8927   -1.9600   -1.9629 H        1 ZINC000187810810    0.0800
50     H50     5.9221   -1.0562   -3.1005 H        1 ZINC000187810810    0.1000
51     H51     4.1301    0.5707   -3.5012 H        1 ZINC000187810810    0.0700
52     H52     4.4033    0.4355   -1.7449 H        1 ZINC000187810810    0.1000
@<TRIPOS>BOND
1     1     2     1
2     1     28    1
3     1     29    1
4     1     30    1
5     2     3     1
6     2     4     1
7     2     5     1
8     3     31    1
9     3     32    1
10    3     33    1
11    4     34    1
12    4     35    1
13    4     36    1
14    5     6     1
15    6     7     2
16    6     8     am
17    8     27    1
18    8     9     1
19    9     10    1
20    9     37    1
21    9     38    1
22    10    11    1
23    10    39    1
24    10    40    1
25    11    12    1
26    11    13    1
27    11    26    1
28    12    41    1
29    12    42    1
30    12    43    1
31    13    14    am
32    13    44    1
33    14    15    2
34    14    16    1
35    16    21    ar
36    16    17    ar
37    17    18    ar
38    17    45    1
39    18    19    ar
40    18    46    1
41    19    20    ar
42    19    47    1
43    20    21    ar
44    20    48    1
45    21    22    1
46    22    23    1
47    22    24    1
48    22    25    1
49    26    27    1
50    26    49    1
51    26    50    1
52    27    51    1
53    27    52    1
@<TRIPOS>SUBSTRUCTURE
1   ZINC000187810810 1     RESIDUE    1   A     ZIN   1
@<TRIPOS>MOLECULE
ZINC000656860804
28	29	1	0	0
SMALL
USER_CHARGES
@<TRIPOS>ATOM
1      O1      0.0092   -0.0177    0.0542 O.2      1 ZINC000656860804   -0.5400
2      C2     -0.0157    1.1947    0.0362 C.2      1 ZINC000656860804    0.5100
3      C3     -1.3518    1.8855    0.0655 C.3      1 ZINC000656860804    0.1100
4      N4     -1.1431    3.3142    0.3439 N.am     1 ZINC000656860804   -1.0000
5      S5     -2.1150    4.1366    1.4029 S.o2     1 ZINC000656860804    2.6900
6      O6     -1.9129    5.5188    1.1425 O.2      1 ZINC000656860804   -0.9200
7      O7     -3.3905    3.5130    1.3441 O.2      1 ZINC000656860804   -0.9300
8      C8     -1.4900    3.8390    3.0232 C.ar     1 ZINC000656860804   -0.6500
9      C9     -2.1996    3.0425    3.9017 C.ar     1 ZINC000656860804    0.0100
10     C10    -1.7093    2.8085    5.1741 C.ar     1 ZINC000656860804   -0.0400
11     Cl11   -2.6005    1.8075    6.2775 Cl       1 ZINC000656860804   -0.0200
12     C12    -0.5075    3.3725    5.5670 C.ar     1 ZINC000656860804    0.0200
13     Cl13    0.1088    3.0789    7.1632 Cl       1 ZINC000656860804   -0.0100
14     C14     0.2023    4.1696    4.6870 C.ar     1 ZINC000656860804   -0.0900
15     C15    -0.2861    4.3981    3.4135 C.ar     1 ZINC000656860804    0.0100
16     Br16    0.6840    5.4878    2.2105 Br       1 ZINC000656860804    0.0100
17     C17    -0.0344    3.9839   -0.3568 C.3      1 ZINC000656860804    0.0900
18     C18     1.2721    3.3036    0.0565 C.3      1 ZINC000656860804    0.0800
19     N19     1.1429    1.8544   -0.0031 N.am     1 ZINC000656860804   -0.7100
20     H20    -1.8438    1.7698   -0.9003 H        1 ZINC000656860804    0.1200
21     H21    -1.9720    1.4479    0.8477 H        1 ZINC000656860804    0.1200
22     H22    -3.1373    2.6030    3.5951 H        1 ZINC000656860804    0.1700
23     H23     1.1396    4.6101    4.9931 H        1 ZINC000656860804    0.1700
24     H24    -0.1717    3.8926   -1.4343 H        1 ZINC000656860804    0.1000
25     H25    -0.0052    5.0370   -0.0772 H        1 ZINC000656860804    0.1200
26     H26     2.0704    3.6228   -0.6135 H        1 ZINC000656860804    0.1000
27     H27     1.5220    3.5964    1.0763 H        1 ZINC000656860804    0.0800
28     H28     1.9563    1.3320   -0.0833 H        1 ZINC000656860804    0.4000
@<TRIPOS>BOND
1     1     2     2
2     2     19    am
3     2     3     1
4     3     4     1
5     3     20    1
6     3     21    1
7     4     5     am
8     4     17    1
9     5     6     2
10    5     7     2
11    5     8     1
12    8     15    ar
13    8     9     ar
14    9     10    ar
15    9     22    1
16    10    11    1
17    10    12    ar
18    12    13    1
19    12    14    ar
20    14    15    ar
21    14    23    1
22    15    16    1
23    17    18    1
24    17    24    1
25    17    25    1
26    18    19    1
27    18    26    1
28    18    27    1
29    19    28    1
@<TRIPOS>SUBSTRUCTURE
1   ZINC000656860804 1     RESIDUE    1   A     ZIN   1
@<TRIPOS>MOLECULE
ZINC000508571532
51	53	1	0	0
SMALL
USER_CHARGES
@<TRIPOS>ATOM
1      C1      0.0573    1.3852   -0.3875 C.3      1 ZINC000508571532    0.0300
2      O2      0.0735   -0.0433   -0.4183 O.3      1 ZINC000508571532   -0.3200
3      C3     -1.1286   -0.6759   -0.3555 C.ar     1 ZINC000508571532    0.0900
4      C4     -2.2983    0.0646   -0.2719 C.ar     1 ZINC000508571532   -0.1700
5      C5     -3.5195   -0.5779   -0.2081 C.ar     1 ZINC000508571532   -0.1100
6      C6     -3.5758   -1.9636   -0.2282 C.ar     1 ZINC000508571532    0.0900
7      O7     -4.7779   -2.5961   -0.1649 O.3      1 ZINC000508571532   -0.3100
8      C8     -4.7614   -4.0248   -0.1902 C.3      1 ZINC000508571532    0.1500
9      C9     -6.1736   -4.5450   -0.1121 C.2      1 ZINC000508571532    0.1700
10     N10    -6.8348   -4.8240    0.9754 N.2      1 ZINC000508571532   -0.2500
11     N11    -8.0123   -5.2456    0.6793 N.2      1 ZINC000508571532   -0.3000
12     C12    -8.1668   -5.2582   -0.6236 C.2      1 ZINC000508571532    0.3500
13     N13    -9.3019   -5.6509   -1.3149 N.3      1 ZINC000508571532   -0.4600
14     C14    -9.5745   -7.0799   -1.1109 C.3      1 ZINC000508571532    0.0300
15     C15   -10.4609   -4.8339   -0.9312 C.3      1 ZINC000508571532    0.1100
16     C16   -11.6074   -5.1174   -1.8673 C.ar     1 ZINC000508571532   -0.0900
17     C17   -11.8775   -4.2538   -2.9108 C.ar     1 ZINC000508571532   -0.0600
18     C18   -12.9297   -4.5131   -3.7698 C.ar     1 ZINC000508571532   -0.1300
19     C19   -13.7134   -5.6371   -3.5870 C.ar     1 ZINC000508571532   -0.0700
20     C20   -13.4471   -6.5044   -2.5449 C.ar     1 ZINC000508571532   -0.1900
21     C21   -12.3890   -6.2493   -1.6850 C.ar     1 ZINC000508571532    0.1100
22     O22   -12.1250   -7.1008   -0.6593 O.3      1 ZINC000508571532   -0.3100
23     C23   -12.9779   -8.2395   -0.5256 C.3      1 ZINC000508571532    0.6000
24     F24   -12.9048   -9.0160   -1.6871 F        1 ZINC000508571532   -0.1600
25     F25   -12.5675   -9.0032    0.5724 F        1 ZINC000508571532   -0.1300
26     F26   -14.2964   -7.8143   -0.3312 F        1 ZINC000508571532   -0.1600
27     N27    -7.0007   -4.8061   -1.1693 N.pl3    1 ZINC000508571532   -0.4500
28     C28    -6.6948   -4.6435   -2.5927 C.3      1 ZINC000508571532    0.0800
29     C29    -2.4062   -2.7041   -0.3132 C.ar     1 ZINC000508571532   -0.1700
30     C30    -1.1853   -2.0615   -0.3808 C.ar     1 ZINC000508571532   -0.1100
31     H31     1.0787    1.7615   -0.4441 H        1 ZINC000508571532    0.1000
32     H32    -0.5157    1.7605   -1.2354 H        1 ZINC000508571532    0.0600
33     H33    -0.4035    1.7234    0.5407 H        1 ZINC000508571532    0.0600
34     H34    -2.2544    1.1436   -0.2563 H        1 ZINC000508571532    0.1400
35     H35    -4.4303   -0.0013   -0.1423 H        1 ZINC000508571532    0.1300
36     H36    -4.2990   -4.3665   -1.1162 H        1 ZINC000508571532    0.0800
37     H37    -4.1897   -4.3966    0.6601 H        1 ZINC000508571532    0.1000
38     H38    -9.8704   -7.2492   -0.0756 H        1 ZINC000508571532    0.0600
39     H39   -10.3794   -7.3947   -1.7750 H        1 ZINC000508571532    0.0800
40     H40    -8.6758   -7.6562   -1.3307 H        1 ZINC000508571532    0.0700
41     H41   -10.7560   -5.0785    0.0892 H        1 ZINC000508571532    0.0700
42     H42   -10.1965   -3.7781   -0.9898 H        1 ZINC000508571532    0.0900
43     H43   -11.2666   -3.3750   -3.0557 H        1 ZINC000508571532    0.1400
44     H44   -13.1397   -3.8362   -4.5847 H        1 ZINC000508571532    0.1300
45     H45   -14.5348   -5.8373   -4.2590 H        1 ZINC000508571532    0.1400
46     H46   -14.0599   -7.3822   -2.4023 H        1 ZINC000508571532    0.1400
47     H47    -6.8899   -3.6134   -2.8909 H        1 ZINC000508571532    0.0900
48     H48    -5.6453   -4.8800   -2.7682 H        1 ZINC000508571532    0.0900
49     H49    -7.3216   -5.3161   -3.1782 H        1 ZINC000508571532    0.1000
50     H50    -2.4501   -3.7831   -0.3291 H        1 ZINC000508571532    0.1400
51     H51    -0.2745   -2.6381   -0.4470 H        1 ZINC000508571532    0.1400
@<TRIPOS>BOND
1     1     2     1
2     1     31    1
3     1     32    1
4     1     33    1
5     2     3     1
6     3     30    ar
7     3     4     ar
8     4     5     ar
9     4     34    1
10    5     6     ar
11    5     35    1
12    6     7     1
13    6     29    ar
14    7     8     1
15    8     9     1
16    8     36    1
17    8     37    1
18    9     27    1
19    9     10    2
20    10    11    1
21    11    12    2
22    12    13    1
23    12    27    1
24    13    14    1
25    13    15    1
26    14    38    1
27    14    39    1
28    14    40    1
29    15    16    1
30    15    41    1
31    15    42    1
32    16    21    ar
33    16    17    ar
34    17    18    ar
35    17    43    1
36    18    19    ar
37    18    44    1
38    19    20    ar
39    19    45    1
40    20    21    ar
41    20    46    1
42    21    22    1
43    22    23    1
44    23    24    1
45    23    25    1
46    23    26    1
47    27    28    1
48    28    47    1
49    28    48    1
50    28    49    1
51    29    30    ar
52    29    50    1
53    30    51    1
@<TRIPOS>SUBSTRUCTURE
1   ZINC000508571532 1     RESIDUE    1   A     ZIN   1
@<TRIPOS>MOLECULE
ZINC001122903793
47	50	1	0	0
SMALL
USER_CHARGES
@<TRIPOS>ATOM
1      C1     -1.8005   -3.7457   -0.8957 C.3      1 ZINC001122903793   -0.1400
2      C2     -1.1428   -2.5880   -0.1419 C.3      1 ZINC001122903793   -0.0400
3      H3     -1.8093   -2.2391    0.6469 H        1 ZINC001122903793    0.1000
4      S4     -0.7962   -1.2256   -1.2962 S.3      1 ZINC001122903793   -0.2500
5      C5      0.2089   -0.1101   -0.2695 C.3      1 ZINC001122903793   -0.0800
6      C6      1.3478   -0.9209    0.3582 C.3      1 ZINC001122903793    0.0700
7      N7      0.7965   -1.9646    1.2253 N.3      1 ZINC001122903793   -0.4800
8      C8      1.7592   -2.4448    2.0980 C.2      1 ZINC001122903793    0.3700
9      N9      2.8535   -3.0913    1.7701 N.2      1 ZINC001122903793   -0.2900
10     N10     3.5238   -3.3907    2.8248 N.2      1 ZINC001122903793   -0.2400
11     C11     2.8967   -2.9524    3.8940 C.2      1 ZINC001122903793    0.2600
12     C12     3.3402   -3.0969    5.2902 C.2      1 ZINC001122903793   -0.1600
13     C13     4.4763   -3.7039    5.7080 C.2      1 ZINC001122903793    0.1600
14     Cl14    5.6162   -4.4271    4.6165 Cl       1 ZINC001122903793    0.0300
15     N15     4.6408   -3.6980    7.0120 N.2      1 ZINC001122903793   -0.4600
16     C16     3.7241   -3.1291    7.7223 C.2      1 ZINC001122903793    0.0300
17     S17     2.4916   -2.5041    6.7161 S.3      1 ZINC001122903793    0.2200
18     N18     1.7488   -2.3283    3.4596 N.pl3    1 ZINC001122903793   -0.4600
19     C19     0.7261   -1.6811    4.2852 C.3      1 ZINC001122903793    0.1100
20     C20     1.0120   -0.1804    4.3678 C.3      1 ZINC001122903793    0.0700
21     H21     1.0980    0.2434    3.3673 H        1 ZINC001122903793    0.0800
22     C22    -0.1085    0.5376    5.1615 C.3      1 ZINC001122903793   -0.1500
23     C23     0.6490    1.7948    5.6691 C.3      1 ZINC001122903793   -0.1500
24     C24     2.0733    1.2469    5.9032 C.3      1 ZINC001122903793    0.0500
25     O25     2.2154    0.0576    5.1152 O.3      1 ZINC001122903793   -0.3700
26     C26     0.1798   -3.0590    0.4724 C.3      1 ZINC001122903793    0.1000
27     H27     0.8526   -3.3741   -0.3252 H        1 ZINC001122903793    0.0800
28     C28    -0.0822   -4.2379    1.4118 C.3      1 ZINC001122903793   -0.1500
29     H29    -2.0007   -4.5632   -0.2031 H        1 ZINC001122903793    0.0800
30     H30    -2.7374   -3.4060   -1.3374 H        1 ZINC001122903793    0.0700
31     H31    -1.1320   -4.0925   -1.6837 H        1 ZINC001122903793    0.0700
32     H32     0.6236    0.6844   -0.8899 H        1 ZINC001122903793    0.1200
33     H33    -0.4104    0.3211    0.5170 H        1 ZINC001122903793    0.0900
34     H34     1.9418   -1.3820   -0.4309 H        1 ZINC001122903793    0.0700
35     H35     1.9821   -0.2584    0.9471 H        1 ZINC001122903793    0.0900
36     H36     3.7368   -3.0549    8.7996 H        1 ZINC001122903793    0.2100
37     H37    -0.2554   -1.8400    3.8386 H        1 ZINC001122903793    0.1200
38     H38     0.7431   -2.1100    5.2871 H        1 ZINC001122903793    0.1000
39     H39    -0.9364    0.8146    4.5090 H        1 ZINC001122903793    0.0900
40     H40    -0.4547   -0.0751    5.9939 H        1 ZINC001122903793    0.0800
41     H41     0.6542    2.5772    4.9103 H        1 ZINC001122903793    0.0800
42     H42     0.2156    2.1591    6.6006 H        1 ZINC001122903793    0.0900
43     H43     2.8101    1.9866    5.5899 H        1 ZINC001122903793    0.0700
44     H44     2.2099    1.0110    6.9585 H        1 ZINC001122903793    0.0700
45     H45    -0.7528   -3.9232    2.2115 H        1 ZINC001122903793    0.0600
46     H46    -0.5413   -5.0531    0.8525 H        1 ZINC001122903793    0.0800
47     H47     0.8606   -4.5772    1.8407 H        1 ZINC001122903793    0.0600
@<TRIPOS>BOND
1     1     2     1
2     1     29    1
3     1     30    1
4     1     31    1
5     2     3     1
6     2     26    1
7     2     4     1
8     4     5     1
9     5     6     1
10    5     32    1
11    5     33    1
12    6     7     1
13    6     34    1
14    6     35    1
15    7     8     1
16    7     26    1
17    8     18    1
18    8     9     2
19    9     10    1
20    10    11    2
21    11    12    1
22    11    18    1
23    12    17    1
24    12    13    2
25    13    14    1
26    13    15    1
27    15    16    2
28    16    17    1
29    16    36    1
30    18    19    1
31    19    20    1
32    19    37    1
33    19    38    1
34    20    21    1
35    20    25    1
36    20    22    1
37    22    23    1
38    22    39    1
39    22    40    1
40    23    24    1
41    23    41    1
42    23    42    1
43    24    25    1
44    24    43    1
45    24    44    1
46    26    27    1
47    26    28    1
48    28    45    1
49    28    46    1
50    28    47    1
@<TRIPOS>SUBSTRUCTURE
1   ZINC001122903793 1     RESIDUE    1   A     ZIN   1
@<TRIPOS>MOLECULE
ZINC000647468483
46	48	1	0	0
SMALL
USER_CHARGES
@<TRIPOS>ATOM
1      O1      0.2615    0.1494    0.7125 O.co2    1 ZINC000647468483   -0.6800
2      C2      0.1943    1.3655    0.6576 C.2      1 ZINC000647468483    0.5000
3      O3      1.2130    2.0346    0.6920 O.co2    1 ZINC000647468483   -0.6900
4      C4     -1.1476    2.0415    0.5408 C.3      1 ZINC000647468483   -0.1500
5      H5     -1.9459    1.3687    0.8541 H        1 ZINC000647468483    0.0800
6      C6     -1.3866    2.5409   -0.9057 C.3      1 ZINC000647468483   -0.1100
7      C7     -2.4148    3.6800   -0.7476 C.3      1 ZINC000647468483   -0.1400
8      C8     -2.2802    4.1965    0.6956 C.3      1 ZINC000647468483    0.0100
9      H9     -3.2224    4.0667    1.2281 H        1 ZINC000647468483    0.1400
10     N10    -1.8977    5.6148    0.6889 N.4      1 ZINC000647468483   -0.5000
11     H11    -1.7086    5.9166    1.6330 H        1 ZINC000647468483    0.4200
12     H12    -1.0703    5.7373    0.1245 H        1 ZINC000647468483    0.4300
13     C13    -2.9951    6.4152    0.1294 C.3      1 ZINC000647468483    0.0200
14     H14    -3.2881    6.0188   -0.8427 H        1 ZINC000647468483    0.1500
15     C15    -4.1985    6.4029    1.0882 C.3      1 ZINC000647468483   -0.1400
16     C16    -4.4502    7.8685    1.4985 C.3      1 ZINC000647468483   -0.1300
17     C17    -3.0833    8.5639    1.2812 C.3      1 ZINC000647468483   -0.1300
18     C18    -2.5569    7.8877   -0.0106 C.3      1 ZINC000647468483   -0.0600
19     H19    -3.0133    8.3401   -0.8911 H        1 ZINC000647468483    0.1300
20     C20    -1.0552    7.9899   -0.0851 C.ar     1 ZINC000647468483   -0.1200
21     C21    -0.4428    8.3089   -1.2823 C.ar     1 ZINC000647468483   -0.0700
22     C22     0.9349    8.4026   -1.3507 C.ar     1 ZINC000647468483   -0.1000
23     C23     1.6997    8.1777   -0.2216 C.ar     1 ZINC000647468483   -0.0600
24     C24     1.0870    7.8594    0.9762 C.ar     1 ZINC000647468483   -0.1600
25     C25     1.9210    7.6137    2.2072 C.3      1 ZINC000647468483    0.5000
26     F26     3.2753    7.7640    1.8905 F        1 ZINC000647468483   -0.1700
27     F27     1.5692    8.5342    3.2002 F        1 ZINC000647468483   -0.1700
28     F28     1.6925    6.3146    2.6735 F        1 ZINC000647468483   -0.1700
29     C29    -0.2905    7.7699    1.0455 C.ar     1 ZINC000647468483   -0.1100
30     C30    -1.1766    3.3505    1.3682 C.3      1 ZINC000647468483   -0.1200
31     H31    -0.4600    2.9204   -1.3363 H        1 ZINC000647468483    0.0800
32     H32    -1.7956    1.7408   -1.5228 H        1 ZINC000647468483    0.0800
33     H33    -2.1955    4.4815   -1.4530 H        1 ZINC000647468483    0.0700
34     H34    -3.4224    3.2996   -0.9156 H        1 ZINC000647468483    0.1000
35     H35    -5.0758    6.0012    0.5811 H        1 ZINC000647468483    0.1000
36     H36    -3.9683    5.8029    1.9687 H        1 ZINC000647468483    0.0900
37     H37    -5.2122    8.3176    0.8615 H        1 ZINC000647468483    0.0800
38     H38    -4.7451    7.9261    2.5463 H        1 ZINC000647468483    0.0900
39     H39    -3.2146    9.6353    1.1302 H        1 ZINC000647468483    0.0900
40     H40    -2.4137    8.3700    2.1192 H        1 ZINC000647468483    0.0800
41     H41    -1.0405    8.4847   -2.1646 H        1 ZINC000647468483    0.1400
42     H42     1.4134    8.6512   -2.2864 H        1 ZINC000647468483    0.1500
43     H43     2.7759    8.2501   -0.2752 H        1 ZINC000647468483    0.1500
44     H44    -0.7691    7.5213    1.9812 H        1 ZINC000647468483    0.1400
45     H45    -1.4334    3.1451    2.4074 H        1 ZINC000647468483    0.0900
46     H46    -0.2145    3.8591    1.3054 H        1 ZINC000647468483    0.1000
@<TRIPOS>BOND
1     1     2     ar
2     2     3     ar
3     2     4     1
4     4     5     1
5     4     30    1
6     4     6     1
7     6     7     1
8     6     31    1
9     6     32    1
10    7     8     1
11    7     33    1
12    7     34    1
13    8     9     1
14    8     10    1
15    8     30    1
16    10    11    1
17    10    12    1
18    10    13    1
19    13    14    1
20    13    18    1
21    13    15    1
22    15    16    1
23    15    35    1
24    15    36    1
25    16    17    1
26    16    37    1
27    16    38    1
28    17    18    1
29    17    39    1
30    17    40    1
31    18    19    1
32    18    20    1
33    20    29    ar
34    20    21    ar
35    21    22    ar
36    21    41    1
37    22    23    ar
38    22    42    1
39    23    24    ar
40    23    43    1
41    24    25    1
42    24    29    ar
43    25    26    1
44    25    27    1
45    25    28    1
46    29    44    1
47    30    45    1
48    30    46    1
@<TRIPOS>SUBSTRUCTURE
1   ZINC000647468483 1     RESIDUE    1   A     ZIN   1
@<TRIPOS>MOLECULE
ZINC000151850193
55	55	1	0	0
SMALL
USER_CHARGES
@<TRIPOS>ATOM
1      C1      0.9288   -0.5414    1.1869 C.3      1 ZINC000151850193   -0.1500
2      C2      0.0331   -0.1080    0.0246 C.3      1 ZINC000151850193   -0.1000
3      C3      0.7507   -0.3763   -1.2998 C.3      1 ZINC000151850193   -0.0800
4      C4      2.1334    0.2750   -1.3689 C.3      1 ZINC000151850193   -0.1000
5      C5      1.9909    1.7912   -1.2211 C.3      1 ZINC000151850193   -0.1500
6      C6      0.7437   -1.8569   -1.7152 C.3      1 ZINC000151850193    0.1400
7      H7      0.6461   -2.5455   -0.8759 H        1 ZINC000151850193    0.1000
8      N8      1.8361   -2.2170   -2.6225 N.am     1 ZINC000151850193   -0.7000
9      C9      2.2737   -3.4906   -2.6783 C.2      1 ZINC000151850193    0.5200
10     O10     1.7631   -4.3384   -1.9773 O.2      1 ZINC000151850193   -0.5300
11     C11     3.3975   -3.8610   -3.6115 C.3      1 ZINC000151850193   -0.1500
12     C12     3.6976   -5.3555   -3.4805 C.3      1 ZINC000151850193    0.1500
13     N13     4.7900   -5.7156   -4.3878 N.am     1 ZINC000151850193   -0.7100
14     C14     5.2276   -6.9892   -4.4435 C.2      1 ZINC000151850193    0.6500
15     O15     4.7161   -7.8386   -3.7412 O.2      1 ZINC000151850193   -0.5600
16     O16     6.2316   -7.3201   -5.2773 O.3      1 ZINC000151850193   -0.3700
17     C17     6.6512   -8.7101   -5.2847 C.3      1 ZINC000151850193    0.1400
18     C18     5.4718   -9.5968   -5.6892 C.3      1 ZINC000151850193   -0.1800
19     C19     7.7934   -8.8927   -6.2862 C.3      1 ZINC000151850193   -0.1400
20     C20     7.1307   -9.1056   -3.8866 C.3      1 ZINC000151850193   -0.1800
21     C21    -0.5855   -1.5680   -2.4326 C.3      1 ZINC000151850193   -0.1700
22     C22    -0.1202   -0.1061   -2.5381 C.3      1 ZINC000151850193    0.0700
23     H23    -0.9152    0.6189   -2.3630 H        1 ZINC000151850193    0.0800
24     O24     0.6330    0.1711   -3.7204 O.3      1 ZINC000151850193   -0.3700
25     C25    -0.0556    0.9868   -4.6704 C.3      1 ZINC000151850193    0.0300
26     H26     1.1197   -1.6124    1.1187 H        1 ZINC000151850193    0.0600
27     H27     1.8737   -0.0001    1.1388 H        1 ZINC000151850193    0.0600
28     H28     0.4311   -0.3204    2.1311 H        1 ZINC000151850193    0.0600
29     H29    -0.8988   -0.6727    0.0539 H        1 ZINC000151850193    0.0700
30     H30    -0.1843    0.9566    0.1108 H        1 ZINC000151850193    0.0700
31     H31     2.7578   -0.1115   -0.5634 H        1 ZINC000151850193    0.0700
32     H32     2.5955    0.0454   -2.3290 H        1 ZINC000151850193    0.0700
33     H33     1.4278    2.1873   -2.0662 H        1 ZINC000151850193    0.0500
34     H34     1.4632    2.0179   -0.2946 H        1 ZINC000151850193    0.0500
35     H35     2.9800    2.2485   -1.1972 H        1 ZINC000151850193    0.0500
36     H36     2.2444   -1.5389   -3.1831 H        1 ZINC000151850193    0.4100
37     H37     3.1060   -3.6376   -4.6378 H        1 ZINC000151850193    0.1000
38     H38     4.2879   -3.2876   -3.3537 H        1 ZINC000151850193    0.1000
39     H39     3.9890   -5.5790   -2.4542 H        1 ZINC000151850193    0.0800
40     H40     2.8072   -5.9289   -3.7384 H        1 ZINC000151850193    0.0800
41     H41     5.1984   -5.0375   -4.9484 H        1 ZINC000151850193    0.4100
42     H42     5.1302   -9.3150   -6.6852 H        1 ZINC000151850193    0.0600
43     H43     5.7868  -10.6402   -5.6947 H        1 ZINC000151850193    0.0700
44     H44     4.6580   -9.4667   -4.9757 H        1 ZINC000151850193    0.0900
45     H45     8.6337   -8.2610   -5.9981 H        1 ZINC000151850193    0.0700
46     H46     8.1085   -9.9361   -6.2918 H        1 ZINC000151850193    0.0800
47     H47     7.4519   -8.6109   -7.2822 H        1 ZINC000151850193    0.0700
48     H48     6.3170   -8.9755   -3.1732 H        1 ZINC000151850193    0.0900
49     H49     7.4457  -10.1491   -3.8922 H        1 ZINC000151850193    0.0700
50     H50     7.9710   -8.4739   -3.5985 H        1 ZINC000151850193    0.0600
51     H51    -0.6786   -2.0672   -3.3971 H        1 ZINC000151850193    0.0800
52     H52    -1.4620   -1.7026   -1.7988 H        1 ZINC000151850193    0.1000
53     H53    -0.9719    0.4859   -4.9828 H        1 ZINC000151850193    0.0400
54     H54    -0.3030    1.9455   -4.2145 H        1 ZINC000151850193    0.0400
55     H55     0.5827    1.1512   -5.5385 H        1 ZINC000151850193    0.0900
@<TRIPOS>BOND
1     1     2     1
2     1     26    1
3     1     27    1
4     1     28    1
5     2     3     1
6     2     29    1
7     2     30    1
8     3     22    1
9     3     4     1
10    3     6     1
11    4     5     1
12    4     31    1
13    4     32    1
14    5     33    1
15    5     34    1
16    5     35    1
17    6     7     1
18    6     8     1
19    6     21    1
20    8     9     am
21    8     36    1
22    9     10    2
23    9     11    1
24    11    12    1
25    11    37    1
26    11    38    1
27    12    13    1
28    12    39    1
29    12    40    1
30    13    14    am
31    13    41    1
32    14    15    2
33    14    16    1
34    16    17    1
35    17    18    1
36    17    19    1
37    17    20    1
38    18    42    1
39    18    43    1
40    18    44    1
41    19    45    1
42    19    46    1
43    19    47    1
44    20    48    1
45    20    49    1
46    20    50    1
47    21    22    1
48    21    51    1
49    21    52    1
50    22    23    1
51    22    24    1
52    24    25    1
53    25    53    1
54    25    54    1
55    25    55    1
@<TRIPOS>SUBSTRUCTURE
1   ZINC000151850193 1     RESIDUE    1   A     ZIN   1
@<TRIPOS>MOLECULE
ZINC001271977984
44	46	1	0	0
SMALL
USER_CHARGES
@<TRIPOS>ATOM
1      C1      0.3714    1.7569    0.3875 C.3      1 ZINC001271977984   -0.1800
2      C2      0.5089    0.2501    0.6148 C.3      1 ZINC001271977984    0.1700
3      H3      1.2094    0.0681    1.4298 H        1 ZINC001271977984    0.1100
4      C4     -0.8362   -0.3292    0.9697 C.2      1 ZINC001271977984    0.2700
5      N5     -1.8012   -0.5370    0.1252 N.2      1 ZINC001271977984   -0.4700
6      C6     -2.8615   -1.0675    0.7928 C.ar     1 ZINC001271977984    0.0200
7      C7     -4.1375   -1.4803    0.4071 C.ar     1 ZINC001271977984   -0.0600
8      C8     -5.0046   -1.9886    1.3486 C.ar     1 ZINC001271977984   -0.1200
9      C9     -4.6174   -2.0925    2.6762 C.ar     1 ZINC001271977984   -0.0900
10     C10    -3.3593   -1.6879    3.0718 C.ar     1 ZINC001271977984   -0.0900
11     C11    -2.4735   -1.1743    2.1374 C.ar     1 ZINC001271977984    0.0100
12     O12    -1.2064   -0.7096    2.2026 O.3      1 ZINC001271977984   -0.2100
13     N13     1.0082   -0.3865   -0.6114 N.3      1 ZINC001271977984   -0.5300
14     C14     0.1646   -0.0430   -1.7639 C.3      1 ZINC001271977984    0.0000
15     C15     2.4103   -0.0250   -0.8589 C.3      1 ZINC001271977984    0.0400
16     C16     2.9684   -0.8915   -1.9896 C.3      1 ZINC001271977984    0.1200
17     N17     4.3668   -0.5309   -2.2365 N.am     1 ZINC001271977984   -0.6000
18     C18     5.4391   -1.2172   -1.5116 C.3      1 ZINC001271977984    0.0800
19     C19     4.6667    0.4321   -3.1304 C.2      1 ZINC001271977984    0.6000
20     O20     3.7761    1.0679   -3.6609 O.2      1 ZINC001271977984   -0.5300
21     C21     6.0743    0.7147   -3.4650 C.2      1 ZINC001271977984   -0.0800
22     C22     6.5307    1.7266   -4.2523 C.2      1 ZINC001271977984    0.0200
23     O23     7.8684    1.6189   -4.2918 O.3      1 ZINC001271977984   -0.2000
24     C24     8.2263    0.5644   -3.5455 C.2      1 ZINC001271977984    0.1800
25     N25     7.1621    0.0164   -3.0401 N.2      1 ZINC001271977984   -0.4600
26     H26     1.3443    2.1759    0.1308 H        1 ZINC001271977984    0.0800
27     H27    -0.3291    1.9389   -0.4275 H        1 ZINC001271977984    0.0800
28     H28     0.0010    2.2293    1.2973 H        1 ZINC001271977984    0.0700
29     H29    -4.4439   -1.4012   -0.6255 H        1 ZINC001271977984    0.1400
30     H30    -5.9925   -2.3081    1.0512 H        1 ZINC001271977984    0.1400
31     H31    -5.3060   -2.4927    3.4057 H        1 ZINC001271977984    0.1400
32     H32    -3.0648   -1.7718    4.1075 H        1 ZINC001271977984    0.1400
33     H33     0.1658    1.0378   -1.9058 H        1 ZINC001271977984    0.0300
34     H34     0.5566   -0.5273   -2.6582 H        1 ZINC001271977984    0.0700
35     H35    -0.8546   -0.3845   -1.5828 H        1 ZINC001271977984    0.1100
36     H36     2.4699    1.0257   -1.1430 H        1 ZINC001271977984    0.0500
37     H37     2.9935   -0.1900    0.0471 H        1 ZINC001271977984    0.0800
38     H38     2.9088   -1.9421   -1.7055 H        1 ZINC001271977984    0.0900
39     H39     2.3853   -0.7264   -2.8956 H        1 ZINC001271977984    0.0900
40     H40     5.8194   -2.0392   -2.1181 H        1 ZINC001271977984    0.0600
41     H41     6.2461   -0.5141   -1.3055 H        1 ZINC001271977984    0.0900
42     H42     5.0496   -1.6089   -0.5719 H        1 ZINC001271977984    0.0700
43     H43     5.9311    2.4738   -4.7507 H        1 ZINC001271977984    0.2300
44     H44     9.2395    0.2259   -3.3866 H        1 ZINC001271977984    0.2600
@<TRIPOS>BOND
1     1     2     1
2     1     26    1
3     1     27    1
4     1     28    1
5     2     3     1
6     2     4     1
7     2     13    1
8     4     12    1
9     4     5     2
10    5     6     1
11    6     11    ar
12    6     7     ar
13    7     8     ar
14    7     29    1
15    8     9     ar
16    8     30    1
17    9     10    ar
18    9     31    1
19    10    11    ar
20    10    32    1
21    11    12    1
22    13    14    1
23    13    15    1
24    14    33    1
25    14    34    1
26    14    35    1
27    15    16    1
28    15    36    1
29    15    37    1
30    16    17    1
31    16    38    1
32    16    39    1
33    17    18    1
34    17    19    am
35    18    40    1
36    18    41    1
37    18    42    1
38    19    20    2
39    19    21    1
40    21    25    1
41    21    22    2
42    22    23    1
43    22    43    1
44    23    24    1
45    24    25    2
46    24    44    1
@<TRIPOS>SUBSTRUCTURE
1   ZINC001271977984 1     RESIDUE    1   A     ZIN   1
@<TRIPOS>MOLECULE
ZINC001074839487
53	55	1	0	0
SMALL
USER_CHARGES
@<TRIPOS>ATOM
1      C1     -4.1140    0.0602   -2.4681 C.3      1 ZINC001074839487   -0.1500
2      C2     -4.0802    0.6027   -1.0379 C.3      1 ZINC001074839487   -0.1300
3      C3     -5.4415    0.3805   -0.3758 C.3      1 ZINC001074839487   -0.1100
4      C4     -5.4077    0.9230    1.0544 C.3      1 ZINC001074839487   -0.1400
5      C5     -6.7485    0.7041    1.7065 C.2      1 ZINC001074839487    0.5100
6      O6     -7.6431    0.1670    1.0883 O.2      1 ZINC001074839487   -0.5400
7      N7     -6.9536    1.1051    2.9768 N.am     1 ZINC001074839487   -0.7300
8      C8     -8.2570    0.8923    3.6107 C.3      1 ZINC001074839487    0.1400
9      H9     -9.0455    1.0052    2.8666 H        1 ZINC001074839487    0.0900
10     C10    -8.3122   -0.5182    4.2021 C.3      1 ZINC001074839487   -0.1500
11     C11    -7.1816   -0.6844    5.2223 C.3      1 ZINC001074839487    0.0700
12     N12    -7.2810    0.3916    6.2178 N.am     1 ZINC001074839487   -0.6000
13     C13    -7.3292    0.1068    7.5343 C.2      1 ZINC001074839487    0.5600
14     O14    -7.3678    1.0072    8.3499 O.2      1 ZINC001074839487   -0.5200
15     C15    -7.3349   -1.3008    7.9864 C.ar     1 ZINC001074839487   -0.1300
16     C16    -6.6383   -2.2713    7.2649 C.ar     1 ZINC001074839487   -0.1000
17     C17    -6.6470   -3.5841    7.6914 C.ar     1 ZINC001074839487   -0.1000
18     C18    -7.3436   -3.9379    8.8301 C.ar     1 ZINC001074839487   -0.1100
19     C19    -7.5411   -5.2588    9.5375 C.3      1 ZINC001074839487    0.0900
20     O20    -8.6803   -5.0802   10.3987 O.3      1 ZINC001074839487   -0.3600
21     C21    -8.6841   -3.6783   10.7247 C.3      1 ZINC001074839487    0.0900
22     C22    -8.0385   -2.9774    9.5520 C.ar     1 ZINC001074839487   -0.1400
23     C23    -8.0329   -1.6638    9.1404 C.ar     1 ZINC001074839487   -0.0400
24     C24    -7.3275    1.7839    5.7510 C.3      1 ZINC001074839487    0.1500
25     H25    -6.3769    2.0453    5.2860 H        1 ZINC001074839487    0.0700
26     C26    -7.5948    2.7137    6.9363 C.3      1 ZINC001074839487   -0.1400
27     C27    -8.4564    1.9225    4.7248 C.3      1 ZINC001074839487   -0.1400
28     H28    -4.3379   -1.0063   -2.4469 H        1 ZINC001074839487    0.0500
29     H29    -3.1442    0.2186   -2.9398 H        1 ZINC001074839487    0.0500
30     H30    -4.8840    0.5819   -3.0365 H        1 ZINC001074839487    0.0500
31     H31    -3.3102    0.0811   -0.4695 H        1 ZINC001074839487    0.0600
32     H32    -3.8563    1.6693   -1.0591 H        1 ZINC001074839487    0.0600
33     H33    -6.2115    0.9022   -0.9442 H        1 ZINC001074839487    0.0700
34     H34    -5.6654   -0.6861   -0.3546 H        1 ZINC001074839487    0.0700
35     H35    -4.6377    0.4013    1.6227 H        1 ZINC001074839487    0.0900
36     H36    -5.1838    1.9895    1.0332 H        1 ZINC001074839487    0.0900
37     H37    -6.2381    1.5347    3.4712 H        1 ZINC001074839487    0.4000
38     H38    -9.2724   -0.6685    4.6954 H        1 ZINC001074839487    0.0800
39     H39    -8.1935   -1.2518    3.4047 H        1 ZINC001074839487    0.0800
40     H40    -7.2758   -1.6506    5.7179 H        1 ZINC001074839487    0.1200
41     H41    -6.2191   -0.6243    4.7142 H        1 ZINC001074839487    0.0700
42     H42    -6.0928   -1.9955    6.3744 H        1 ZINC001074839487    0.1500
43     H43    -6.1079   -4.3357    7.1339 H        1 ZINC001074839487    0.1400
44     H44    -7.7389   -6.0476    8.8117 H        1 ZINC001074839487    0.1000
45     H45    -6.6585   -5.5040   10.1283 H        1 ZINC001074839487    0.0800
46     H46    -9.7072   -3.3260   10.8559 H        1 ZINC001074839487    0.1000
47     H47    -8.1063   -3.5022   11.6320 H        1 ZINC001074839487    0.0800
48     H48    -8.5701   -0.9167    9.7058 H        1 ZINC001074839487    0.1400
49     H49    -6.7408    2.6939    7.6134 H        1 ZINC001074839487    0.0800
50     H50    -7.7474    3.7302    6.5735 H        1 ZINC001074839487    0.0500
51     H51    -8.4866    2.3794    7.4664 H        1 ZINC001074839487    0.0700
52     H52    -8.4404    2.9259    4.2995 H        1 ZINC001074839487    0.0900
53     H53    -9.4153    1.7491    5.2132 H        1 ZINC001074839487    0.0900
@<TRIPOS>BOND
1     1     2     1
2     1     28    1
3     1     29    1
4     1     30    1
5     2     3     1
6     2     31    1
7     2     32    1
8     3     4     1
9     3     33    1
10    3     34    1
11    4     5     1
12    4     35    1
13    4     36    1
14    5     6     2
15    5     7     am
16    7     8     1
17    7     37    1
18    8     9     1
19    8     27    1
20    8     10    1
21    10    11    1
22    10    38    1
23    10    39    1
24    11    12    1
25    11    40    1
26    11    41    1
27    12    13    am
28    12    24    1
29    13    14    2
30    13    15    1
31    15    23    ar
32    15    16    ar
33    16    17    ar
34    16    42    1
35    17    18    ar
36    17    43    1
37    18    22    ar
38    18    19    1
39    19    20    1
40    19    44    1
41    19    45    1
42    20    21    1
43    21    22    1
44    21    46    1
45    21    47    1
46    22    23    ar
47    23    48    1
48    24    25    1
49    24    26    1
50    24    27    1
51    26    49    1
52    26    50    1
53    26    51    1
54    27    52    1
55    27    53    1
@<TRIPOS>SUBSTRUCTURE
1   ZINC001074839487 1     RESIDUE    1   A     ZIN   1
@<TRIPOS>MOLECULE
ZINC000474368324
53	54	1	0	0
SMALL
USER_CHARGES
@<TRIPOS>ATOM
1      C1     -0.0048    1.5137    0.0096 C.3      1 ZINC000474368324   -0.1500
2      C2      0.0116   -0.0162    0.0045 C.3      1 ZINC000474368324    0.0600
3      O3     -1.3521   -0.5149    0.0128 O.3      1 ZINC000474368324   -0.3300
4      C4     -1.5137   -1.8474    0.0096 C.2      1 ZINC000474368324    0.4700
5      O5     -0.5477   -2.5731    0.0002 O.2      1 ZINC000474368324   -0.5100
6      C6     -2.9000   -2.4383    0.0178 C.3      1 ZINC000474368324   -0.0400
7      C7     -3.6424   -1.9792    1.2744 C.3      1 ZINC000474368324    0.0600
8      O8     -3.7323   -0.5531    1.2803 O.3      1 ZINC000474368324   -0.3700
9      C9     -4.4116   -0.0182    2.4180 C.3      1 ZINC000474368324    0.0300
10     C10    -3.6616   -1.9690   -1.2240 C.3      1 ZINC000474368324   -0.1200
11     C11    -5.0814   -2.5435   -1.1947 C.3      1 ZINC000474368324    0.1100
12     N12    -4.9980   -4.0036   -1.0540 N.am     1 ZINC000474368324   -0.6300
13     C13    -5.6287   -4.8147   -1.9261 C.2      1 ZINC000474368324    0.7100
14     O14    -5.4753   -6.0189   -1.8567 O.2      1 ZINC000474368324   -0.5800
15     N15    -6.4296   -4.2911   -2.8753 N.am     1 ZINC000474368324   -0.7400
16     C16    -7.2001   -5.1753   -3.7531 C.3      1 ZINC000474368324    0.2000
17     H17    -7.5170   -6.0559   -3.1944 H        1 ZINC000474368324    0.1100
18     C18    -6.3286   -5.6071   -4.9342 C.3      1 ZINC000474368324   -0.1600
19     C19    -8.4130   -4.4421   -4.2654 C.ar     1 ZINC000474368324   -0.0700
20     C20    -8.4041   -3.0624   -4.3445 C.ar     1 ZINC000474368324   -0.1000
21     C21    -9.5163   -2.3889   -4.8149 C.ar     1 ZINC000474368324   -0.0900
22     C22   -10.6381   -3.0947   -5.2064 C.ar     1 ZINC000474368324   -0.1000
23     C23   -10.6488   -4.4759   -5.1279 C.ar     1 ZINC000474368324   -0.0300
24     Cl24  -12.0577   -5.3629   -5.6196 Cl       1 ZINC000474368324   -0.0400
25     C25    -9.5332   -5.1505   -4.6619 C.ar     1 ZINC000474368324   -0.0300
26     Cl26   -9.5447   -6.8837   -4.5633 Cl       1 ZINC000474368324   -0.0400
27     C27    -4.2134   -4.5627    0.0554 C.3      1 ZINC000474368324    0.1300
28     C28    -2.8033   -3.9656    0.0121 C.3      1 ZINC000474368324   -0.1200
29     H29     1.0189    1.8880    0.0034 H        1 ZINC000474368324    0.0800
30     H30    -0.5289    1.8744   -0.8754 H        1 ZINC000474368324    0.0700
31     H31    -0.5160    1.8686    0.9045 H        1 ZINC000474368324    0.0700
32     H32     0.5228   -0.3711   -0.8904 H        1 ZINC000474368324    0.0700
33     H33     0.5357   -0.3769    0.8895 H        1 ZINC000474368324    0.0700
34     H34    -4.6451   -2.4065    1.2805 H        1 ZINC000474368324    0.0700
35     H35    -3.0999   -2.3127    2.1591 H        1 ZINC000474368324    0.0600
36     H36    -5.4303   -0.4048    2.4479 H        1 ZINC000474368324    0.0400
37     H37    -3.8851   -0.3110    3.3264 H        1 ZINC000474368324    0.0400
38     H38    -4.4376    1.0692    2.3477 H        1 ZINC000474368324    0.0900
39     H39    -3.7098   -0.8801   -1.2313 H        1 ZINC000474368324    0.1000
40     H40    -3.1468   -2.3169   -2.1195 H        1 ZINC000474368324    0.0800
41     H41    -5.6274   -2.1255   -0.3489 H        1 ZINC000474368324    0.0800
42     H42    -5.5955   -2.2947   -2.1231 H        1 ZINC000474368324    0.0800
43     H43    -6.4958   -3.3287   -2.9771 H        1 ZINC000474368324    0.3900
44     H44    -6.0117   -4.7265   -5.4930 H        1 ZINC000474368324    0.0600
45     H45    -5.4513   -6.1374   -4.5637 H        1 ZINC000474368324    0.0700
46     H46    -6.9019   -6.2650   -5.5874 H        1 ZINC000474368324    0.0700
47     H47    -7.5280   -2.5099   -4.0385 H        1 ZINC000474368324    0.1300
48     H48    -9.5084   -1.3106   -4.8760 H        1 ZINC000474368324    0.1400
49     H49   -11.5067   -2.5680   -5.5734 H        1 ZINC000474368324    0.1500
50     H50    -4.6886   -4.3094    1.0031 H        1 ZINC000474368324    0.0700
51     H51    -4.1547   -5.6462   -0.0482 H        1 ZINC000474368324    0.1100
52     H52    -2.2966   -4.2947   -0.8951 H        1 ZINC000474368324    0.0900
53     H53    -2.2406   -4.2978    0.8845 H        1 ZINC000474368324    0.0900
@<TRIPOS>BOND
1     1     2     1
2     1     29    1
3     1     30    1
4     1     31    1
5     2     3     1
6     2     32    1
7     2     33    1
8     3     4     1
9     4     5     2
10    4     6     1
11    6     28    1
12    6     7     1
13    6     10    1
14    7     8     1
15    7     34    1
16    7     35    1
17    8     9     1
18    9     36    1
19    9     37    1
20    9     38    1
21    10    11    1
22    10    39    1
23    10    40    1
24    11    12    1
25    11    41    1
26    11    42    1
27    12    13    am
28    12    27    1
29    13    14    2
30    13    15    am
31    15    16    1
32    15    43    1
33    16    17    1
34    16    18    1
35    16    19    1
36    18    44    1
37    18    45    1
38    18    46    1
39    19    25    ar
40    19    20    ar
41    20    21    ar
42    20    47    1
43    21    22    ar
44    21    48    1
45    22    23    ar
46    22    49    1
47    23    24    1
48    23    25    ar
49    25    26    1
50    27    28    1
51    27    50    1
52    27    51    1
53    28    52    1
54    28    53    1
@<TRIPOS>SUBSTRUCTURE
1   ZINC000474368324 1     RESIDUE    1   A     ZIN   1
@<TRIPOS>MOLECULE
ZINC000504243286
44	46	1	0	0
SMALL
USER_CHARGES
@<TRIPOS>ATOM
1      O1     -0.4775    0.3928    0.7179 O.2      1 ZINC000504243286   -0.5200
2      C2     -0.3611    1.5494    1.0642 C.2      1 ZINC000504243286    0.5200
3      C3      0.9711    2.2428    0.9397 C.3      1 ZINC000504243286   -0.1600
4      C4      1.9983    1.2723    0.3533 C.3      1 ZINC000504243286    0.1300
5      N5      3.2934    1.9464    0.2323 N.pl3    1 ZINC000504243286   -0.7200
6      C6      4.3941    1.2572   -0.2818 C.ar     1 ZINC000504243286    0.3100
7      C7      4.2888   -0.0936   -0.5872 C.ar     1 ZINC000504243286   -0.1900
8      C8      5.3791   -0.7721   -1.0959 C.ar     1 ZINC000504243286    0.0200
9      C9      6.5744   -0.1080   -1.3012 C.ar     1 ZINC000504243286   -0.2400
10     C10     7.7616   -0.8514   -1.8569 C.3      1 ZINC000504243286    0.5200
11     F11     7.4116   -2.1869   -2.0828 F        1 ZINC000504243286   -0.1700
12     F12     8.1578   -0.2628   -3.0626 F        1 ZINC000504243286   -0.1700
13     F13     8.8177   -0.7946   -0.9411 F        1 ZINC000504243286   -0.1700
14     C14     6.6826    1.2371   -0.9982 C.ar     1 ZINC000504243286    0.0400
15     C15     5.5950    1.9226   -0.4943 C.ar     1 ZINC000504243286   -0.1200
16     N16     5.7118    3.3620   -0.1703 N.pl3    1 ZINC000504243286    0.0400
17     O17     4.7771    4.1126   -0.3859 O.2      1 ZINC000504243286   -0.1700
18     O18     6.7426    3.7961    0.3119 O.2      1 ZINC000504243286   -0.1400
19     N19    -1.4246    2.2161    1.5551 N.am     1 ZINC000504243286   -0.6700
20     C20    -2.6854    1.6061    1.5751 C.ar     1 ZINC000504243286    0.1200
21     C21    -3.8277    2.3574    1.3331 C.ar     1 ZINC000504243286   -0.1000
22     C22    -5.0703    1.7597    1.3516 C.ar     1 ZINC000504243286   -0.1200
23     C23    -5.1891    0.3964    1.6141 C.ar     1 ZINC000504243286    0.1300
24     N24    -6.3181   -0.4232    1.6874 N.am     1 ZINC000504243286   -0.6600
25     C25    -6.0028   -1.6988    1.9679 C.2      1 ZINC000504243286    0.5300
26     O26    -6.7793   -2.6226    2.0900 O.2      1 ZINC000504243286   -0.5000
27     C27    -4.4965   -1.7668    2.1025 C.3      1 ZINC000504243286   -0.1200
28     C28    -4.0403   -0.3473    1.8552 C.ar     1 ZINC000504243286   -0.1200
29     C29    -2.7985    0.2445    1.8318 C.ar     1 ZINC000504243286   -0.0600
30     H30     0.8710    3.1067    0.2827 H        1 ZINC000504243286    0.1100
31     H31     1.3029    2.5717    1.9245 H        1 ZINC000504243286    0.1100
32     H32     2.0984    0.4084    1.0103 H        1 ZINC000504243286    0.0800
33     H33     1.6665    0.9434   -0.6315 H        1 ZINC000504243286    0.0900
34     H34     3.3865    2.8713    0.5092 H        1 ZINC000504243286    0.4100
35     H35     3.3556   -0.6130   -0.4268 H        1 ZINC000504243286    0.1600
36     H36     5.2981   -1.8226   -1.3333 H        1 ZINC000504243286    0.1600
37     H37     7.6177    1.7529   -1.1597 H        1 ZINC000504243286    0.1600
38     H38    -1.3169    3.1184    1.8945 H        1 ZINC000504243286    0.4200
39     H39    -3.7427    3.4146    1.1297 H        1 ZINC000504243286    0.1400
40     H40    -5.9545    2.3503    1.1624 H        1 ZINC000504243286    0.1300
41     H41    -7.2252   -0.1077    1.5514 H        1 ZINC000504243286    0.4100
42     H42    -4.2170   -2.0884    3.1058 H        1 ZINC000504243286    0.1300
43     H43    -4.0763   -2.4388    1.3542 H        1 ZINC000504243286    0.1300
44     H44    -1.9137   -0.3468    2.0160 H        1 ZINC000504243286    0.1500
@<TRIPOS>BOND
1     1     2     2
2     2     3     1
3     2     19    am
4     3     4     1
5     3     30    1
6     3     31    1
7     4     5     1
8     4     32    1
9     4     33    1
10    5     6     1
11    5     34    1
12    6     15    ar
13    6     7     ar
14    7     8     ar
15    7     35    1
16    8     9     ar
17    8     36    1
18    9     10    1
19    9     14    ar
20    10    11    1
21    10    12    1
22    10    13    1
23    14    15    ar
24    14    37    1
25    15    16    1
26    16    17    2
27    16    18    2
28    19    20    1
29    19    38    1
30    20    29    ar
31    20    21    ar
32    21    22    ar
33    21    39    1
34    22    23    ar
35    22    40    1
36    23    28    ar
37    23    24    1
38    24    25    am
39    24    41    1
40    25    26    2
41    25    27    1
42    27    28    1
43    27    42    1
44    27    43    1
45    28    29    ar
46    29    44    1
@<TRIPOS>SUBSTRUCTURE
1   ZINC000504243286 1     RESIDUE    1   A     ZIN   1
@<TRIPOS>MOLECULE
ZINC000265786263
54	57	1	0	0
SMALL
USER_CHARGES
@<TRIPOS>ATOM
1      C1     -0.0187    1.5258    0.0104 C.3      1 ZINC000265786263   -0.1500
2      C2      0.0021   -0.0041    0.0020 C.3      1 ZINC000265786263    0.1600
3      C3     -1.4228   -0.5599   -0.0406 C.3      1 ZINC000265786263   -0.1600
4      C4     -2.5676    0.4066    0.2693 C.3      1 ZINC000265786263   -0.1600
5      C5     -2.3379   -0.0722   -1.1655 C.3      1 ZINC000265786263   -0.1600
6      N6      0.7916   -0.5054   -1.1361 N.am     1 ZINC000265786263   -0.7100
7      C7      1.8152   -1.2061   -0.6154 C.2      1 ZINC000265786263    0.7100
8      O8      2.6649   -1.7598   -1.2852 O.2      1 ZINC000265786263   -0.5400
9      N9      1.7932   -1.2254    0.7222 N.am     1 ZINC000265786263   -0.5600
10     C10     2.7862   -1.9125    1.5518 C.3      1 ZINC000265786263    0.1000
11     C11     3.9182   -0.9685    1.8657 C.2      1 ZINC000265786263    0.5100
12     O12     3.8976    0.1664    1.4386 O.2      1 ZINC000265786263   -0.5300
13     N13     4.9535   -1.3855    2.6212 N.am     1 ZINC000265786263   -0.6100
14     C14     5.0013   -2.7594    3.1441 C.3      1 ZINC000265786263    0.1100
15     C15     6.3602   -3.3699    2.7851 C.3      1 ZINC000265786263    0.0400
16     N16     7.4320   -2.4860    3.2624 N.3      1 ZINC000265786263   -0.5300
17     C17     8.7484   -3.1152    3.0918 C.3      1 ZINC000265786263    0.0900
18     C18     9.7925   -2.2978    3.8079 C.ar     1 ZINC000265786263   -0.0600
19     C19    10.4455   -1.2765    3.1434 C.ar     1 ZINC000265786263   -0.1300
20     C20    11.4041   -0.5246    3.7977 C.ar     1 ZINC000265786263   -0.1000
21     C21    11.7114   -0.7925    5.1174 C.ar     1 ZINC000265786263   -0.1400
22     C22    11.0574   -1.8171    5.7865 C.ar     1 ZINC000265786263    0.1100
23     O23    11.3578   -2.0824    7.0851 O.3      1 ZINC000265786263   -0.5000
24     C24    10.0923   -2.5662    5.1297 C.ar     1 ZINC000265786263   -0.1200
25     C25     7.3825   -1.1792    2.5934 C.3      1 ZINC000265786263    0.0400
26     C26     6.0685   -0.4807    2.9394 C.3      1 ZINC000265786263    0.1200
27     C27     0.7453   -0.5340    1.2122 C.2      1 ZINC000265786263    0.5400
28     O28     0.4574   -0.3694    2.3783 O.2      1 ZINC000265786263   -0.4500
29     H29     1.0039    1.9031    0.0027 H        1 ZINC000265786263    0.0700
30     H30    -0.5459    1.8868   -0.8726 H        1 ZINC000265786263    0.0800
31     H31    -0.5289    1.8773    0.9072 H        1 ZINC000265786263    0.0900
32     H32    -1.5340   -1.5938    0.2862 H        1 ZINC000265786263    0.1100
33     H33    -3.4324    0.0086    0.8003 H        1 ZINC000265786263    0.1000
34     H34    -2.3058    1.4384    0.5036 H        1 ZINC000265786263    0.1100
35     H35    -1.9250    0.6446   -1.8753 H        1 ZINC000265786263    0.1000
36     H36    -3.0516   -0.7852   -1.5785 H        1 ZINC000265786263    0.1000
37     H37     0.6088   -0.3593   -2.0774 H        1 ZINC000265786263    0.4400
38     H38     2.3191   -2.2412    2.4802 H        1 ZINC000265786263    0.1300
39     H39     3.1732   -2.7777    1.0136 H        1 ZINC000265786263    0.1300
40     H40     4.8819   -2.7432    4.2274 H        1 ZINC000265786263    0.0900
41     H41     4.2038   -3.3505    2.6938 H        1 ZINC000265786263    0.0900
42     H42     6.4565   -4.3469    3.2587 H        1 ZINC000265786263    0.0900
43     H43     6.4348   -3.4807    1.7033 H        1 ZINC000265786263    0.0400
44     H44     8.7265   -4.1222    3.5085 H        1 ZINC000265786263    0.0900
45     H45     8.9919   -3.1664    2.0306 H        1 ZINC000265786263    0.0500
46     H46    10.2068   -1.0656    2.1114 H        1 ZINC000265786263    0.1200
47     H47    11.9130    0.2726    3.2763 H        1 ZINC000265786263    0.1300
48     H48    12.4604   -0.2052    5.6278 H        1 ZINC000265786263    0.1300
49     H49    10.8206   -1.5908    7.7214 H        1 ZINC000265786263    0.3900
50     H50     9.5819   -3.3642    5.6484 H        1 ZINC000265786263    0.1300
51     H51     8.2203   -0.5673    2.9279 H        1 ZINC000265786263    0.1000
52     H52     7.4429   -1.3205    1.5143 H        1 ZINC000265786263    0.0400
53     H53     5.9763    0.4357    2.3564 H        1 ZINC000265786263    0.1000
54     H54     6.0484   -0.2446    4.0034 H        1 ZINC000265786263    0.0800
@<TRIPOS>BOND
1     1     2     1
2     1     29    1
3     1     30    1
4     1     31    1
5     2     27    1
6     2     3     1
7     2     6     1
8     3     5     1
9     3     4     1
10    3     32    1
11    4     5     1
12    4     33    1
13    4     34    1
14    5     35    1
15    5     36    1
16    6     7     am
17    6     37    1
18    7     8     2
19    7     9     am
20    9     10    1
21    9     27    am
22    10    11    1
23    10    38    1
24    10    39    1
25    11    12    2
26    11    13    am
27    13    26    1
28    13    14    1
29    14    15    1
30    14    40    1
31    14    41    1
32    15    16    1
33    15    42    1
34    15    43    1
35    16    17    1
36    16    25    1
37    17    18    1
38    17    44    1
39    17    45    1
40    18    24    ar
41    18    19    ar
42    19    20    ar
43    19    46    1
44    20    21    ar
45    20    47    1
46    21    22    ar
47    21    48    1
48    22    23    1
49    22    24    ar
50    23    49    1
51    24    50    1
52    25    26    1
53    25    51    1
54    25    52    1
55    26    53    1
56    26    54    1
57    27    28    2
@<TRIPOS>SUBSTRUCTURE
1   ZINC000265786263 1     RESIDUE    1   A     ZIN   1
@<TRIPOS>MOLECULE
ZINC001579482641
43	46	1	0	0
SMALL
USER_CHARGES
@<TRIPOS>ATOM
1      C1     -0.0176    1.4478    0.0100 C.3      1 ZINC001579482641    0.0300
2      O2      0.0021   -0.0041    0.0020 O.3      1 ZINC001579482641   -0.3300
3      C3      0.6204   -0.6131    1.0325 C.2      1 ZINC001579482641    0.5300
4      O4      1.1292    0.0507    1.9136 O.2      1 ZINC001579482641   -0.4900
5      C5      0.6797   -2.0881    1.0910 C.ar     1 ZINC001579482641    0.0900
6      C6      1.3177   -2.7099    2.1657 C.ar     1 ZINC001579482641   -0.0800
7      C7      1.3705   -4.0910    2.2158 C.ar     1 ZINC001579482641   -0.1200
8      C8      0.7805   -4.8170    1.1839 C.ar     1 ZINC001579482641    0.1100
9      N9      0.8097   -6.2049    1.1942 N.3      1 ZINC001579482641   -0.4600
10     C10     2.2060   -6.7076    1.2548 C.3      1 ZINC001579482641    0.0400
11     C11     2.0391   -8.1554    1.7806 C.3      1 ZINC001579482641   -0.1100
12     C12     0.8879   -8.0211    2.8037 C.3      1 ZINC001579482641   -0.0100
13     H13     1.2882   -7.9205    3.8125 H        1 ZINC001579482641    0.0900
14     C14    -0.0269   -9.2158    2.7215 C.2      1 ZINC001579482641    0.1800
15     N15    -0.6769   -9.6211    1.6647 N.2      1 ZINC001579482641   -0.2600
16     N16    -1.3608  -10.6711    1.9534 N.2      1 ZINC001579482641   -0.2900
17     C17    -1.1782  -10.9834    3.2075 C.2      1 ZINC001579482641    0.1500
18     N18    -0.3225  -10.0717    3.7294 N.pl3    1 ZINC001579482641   -0.4800
19     C19     0.1753  -10.0173    5.1062 C.3      1 ZINC001579482641    0.0700
20     C20     0.1358   -6.7403    2.3970 C.3      1 ZINC001579482641    0.0600
21     C21     0.1549   -4.1256    0.1325 C.ar     1 ZINC001579482641    0.2300
22     C22    -0.4778   -4.8853   -0.9736 C.2      1 ZINC001579482641    0.2100
23     N23    -1.0937   -4.3805   -2.0244 N.2      1 ZINC001579482641   -0.2600
24     N24    -1.5030   -5.3629   -2.7511 N.pl3    1 ZINC001579482641   -0.2300
25     N25    -1.1664   -6.4738   -2.1946 N.2      1 ZINC001579482641   -0.0500
26     N26    -0.5296   -6.2190   -1.1022 N.2      1 ZINC001579482641   -0.2000
27     N27     0.1207   -2.8054    0.1233 N.ar     1 ZINC001579482641   -0.4000
28     H28     1.0050    1.8251    0.0023 H        1 ZINC001579482641    0.0700
29     H29    -0.5448    1.8089   -0.8731 H        1 ZINC001579482641    0.1100
30     H30    -0.5278    1.7993    0.9068 H        1 ZINC001579482641    0.0700
31     H31     1.7660   -2.1182    2.9502 H        1 ZINC001579482641    0.1600
32     H32     1.8587   -4.5954    3.0366 H        1 ZINC001579482641    0.1600
33     H33     2.6581   -6.7082    0.2629 H        1 ZINC001579482641    0.1000
34     H34     2.7994   -6.1122    1.9487 H        1 ZINC001579482641    0.0600
35     H35     1.7592   -8.8298    0.9713 H        1 ZINC001579482641    0.1000
36     H36     2.9519   -8.4958    2.2695 H        1 ZINC001579482641    0.0800
37     H37    -1.6235  -11.8165    3.7311 H        1 ZINC001579482641    0.2200
38     H38     1.0936  -10.5993    5.1838 H        1 ZINC001579482641    0.0800
39     H39     0.3775   -8.9815    5.3788 H        1 ZINC001579482641    0.0900
40     H40    -0.5749  -10.4306    5.7804 H        1 ZINC001579482641    0.0900
41     H41     0.1824   -6.0100    3.2048 H        1 ZINC001579482641    0.0600
42     H42    -0.9028   -6.9770    2.1663 H        1 ZINC001579482641    0.1000
43     H43    -1.9890   -5.2785   -3.5864 H        1 ZINC001579482641    0.4800
@<TRIPOS>BOND
1     1     2     1
2     1     28    1
3     1     29    1
4     1     30    1
5     2     3     1
6     3     4     2
7     3     5     1
8     5     27    ar
9     5     6     ar
10    6     7     ar
11    6     31    1
12    7     8     ar
13    7     32    1
14    8     9     1
15    8     21    ar
16    9     20    1
17    9     10    1
18    10    11    1
19    10    33    1
20    10    34    1
21    11    12    1
22    11    35    1
23    11    36    1
24    12    13    1
25    12    14    1
26    12    20    1
27    14    18    1
28    14    15    2
29    15    16    1
30    16    17    2
31    17    18    1
32    17    37    1
33    18    19    1
34    19    38    1
35    19    39    1
36    19    40    1
37    20    41    1
38    20    42    1
39    21    22    1
40    21    27    ar
41    22    26    1
42    22    23    2
43    23    24    1
44    24    25    1
45    24    43    1
46    25    26    2
@<TRIPOS>SUBSTRUCTURE
1   ZINC001579482641 1     RESIDUE    1   A     ZIN   1
@<TRIPOS>MOLECULE
ZINC000011157684
41	43	1	0	0
SMALL
USER_CHARGES
@<TRIPOS>ATOM
1      O1      0.0021   -0.0041    0.0020 O.2      1 ZINC000011157684   -0.5200
2      C2     -0.0144    1.2086    0.0087 C.2      1 ZINC000011157684    0.5100
3      C3      1.2803    1.9798    0.0005 C.3      1 ZINC000011157684    0.1000
4      N4      2.4066    1.0431   -0.0153 N.pl3    1 ZINC000011157684   -0.7300
5      C5      3.7191    1.5273   -0.0252 C.ar     1 ZINC000011157684    0.2200
6      C6      3.9555    2.8950   -0.0144 C.ar     1 ZINC000011157684   -0.1600
7      C7      5.2525    3.3713   -0.0237 C.ar     1 ZINC000011157684   -0.0900
8      C8      6.3164    2.4858   -0.0444 C.ar     1 ZINC000011157684    0.0500
9      F9      7.5836    2.9541   -0.0540 F        1 ZINC000011157684   -0.1400
10     C10     6.0838    1.1206   -0.0548 C.ar     1 ZINC000011157684   -0.0900
11     C11     4.7885    0.6395   -0.0402 C.ar     1 ZINC000011157684   -0.0900
12     Cl12    4.4970   -1.0718   -0.0533 Cl       1 ZINC000011157684   -0.0500
13     N13    -1.1906    1.8666    0.0178 N.am     1 ZINC000011157684   -0.7200
14     C14    -2.4492    1.1169    0.0197 C.3      1 ZINC000011157684    0.2600
15     H15    -2.3279    0.2045    0.6037 H        1 ZINC000011157684    0.1200
16     C16    -2.8242    0.7611   -1.3959 C.2      1 ZINC000011157684   -0.1900
17     C17    -3.3504   -0.4019   -1.7828 C.2      1 ZINC000011157684   -0.1200
18     C18    -3.6138   -0.5007   -3.1382 C.2      1 ZINC000011157684   -0.1300
19     C19    -3.3014    0.5820   -3.8519 C.2      1 ZINC000011157684   -0.2100
20     S20    -2.6419    1.8188   -2.7893 S.3      1 ZINC000011157684    0.1100
21     C21    -3.5369    1.9629    0.6300 C.ar     1 ZINC000011157684   -0.0900
22     C22    -3.6071    3.3127    0.3403 C.ar     1 ZINC000011157684   -0.1100
23     C23    -4.6048    4.0887    0.9001 C.ar     1 ZINC000011157684   -0.1100
24     C24    -5.5325    3.5148    1.7491 C.ar     1 ZINC000011157684   -0.1100
25     C25    -5.4628    2.1648    2.0380 C.ar     1 ZINC000011157684   -0.1100
26     C26    -4.4677    1.3879    1.4749 C.ar     1 ZINC000011157684   -0.1000
27     H27     1.3211    2.6120   -0.8866 H        1 ZINC000011157684    0.1000
28     H28     1.3381    2.6024    0.8933 H        1 ZINC000011157684    0.1000
29     H29     2.2423    0.0871   -0.0189 H        1 ZINC000011157684    0.4200
30     H30     3.1261    3.5866    0.0011 H        1 ZINC000011157684    0.1400
31     H31     5.4365    4.4354   -0.0152 H        1 ZINC000011157684    0.1400
32     H32     6.9153    0.4315   -0.0706 H        1 ZINC000011157684    0.1500
33     H33    -1.2037    2.8365    0.0232 H        1 ZINC000011157684    0.4000
34     H34    -3.5551   -1.2056   -1.0911 H        1 ZINC000011157684    0.1400
35     H35    -4.0396   -1.3875   -3.5840 H        1 ZINC000011157684    0.1400
36     H36    -3.4363    0.6849   -4.9185 H        1 ZINC000011157684    0.1700
37     H37    -2.8823    3.7611   -0.3230 H        1 ZINC000011157684    0.1200
38     H38    -4.6592    5.1435    0.6743 H        1 ZINC000011157684    0.1300
39     H39    -6.3116    4.1213    2.1870 H        1 ZINC000011157684    0.1300
40     H40    -6.1874    1.7165    2.7016 H        1 ZINC000011157684    0.1300
41     H41    -4.4133    0.3332    1.7006 H        1 ZINC000011157684    0.1300
@<TRIPOS>BOND
1     1     2     2
2     2     3     1
3     2     13    am
4     3     4     1
5     3     27    1
6     3     28    1
7     4     5     1
8     4     29    1
9     5     11    ar
10    5     6     ar
11    6     7     ar
12    6     30    1
13    7     8     ar
14    7     31    1
15    8     9     1
16    8     10    ar
17    10    11    ar
18    10    32    1
19    11    12    1
20    13    14    1
21    13    33    1
22    14    15    1
23    14    16    1
24    14    21    1
25    16    20    1
26    16    17    2
27    17    18    1
28    17    34    1
29    18    19    2
30    18    35    1
31    19    20    1
32    19    36    1
33    21    26    ar
34    21    22    ar
35    22    23    ar
36    22    37    1
37    23    24    ar
38    23    38    1
39    24    25    ar
40    24    39    1
41    25    26    ar
42    25    40    1
43    26    41    1
@<TRIPOS>SUBSTRUCTURE
1   ZINC000011157684 1     RESIDUE    1   A     ZIN   1
@<TRIPOS>MOLECULE
ZINC000482910431
49	51	1	0	0
SMALL
USER_CHARGES
@<TRIPOS>ATOM
1      C1      0.4506   -0.8025    1.1612 C.3      1 ZINC000482910431   -0.1500
2      C2      0.0759    0.0855   -0.0270 C.3      1 ZINC000482910431    0.0800
3      C3     -1.4392    0.0444   -0.2366 C.3      1 ZINC000482910431   -0.1400
4      C4      0.4964    1.4700    0.2432 C.1      1 ZINC000482910431    0.2100
5      N5      0.8210    2.5385    0.4518 N.1      1 ZINC000482910431   -0.4300
6      C6      0.7684   -0.4167   -1.2676 C.ar     1 ZINC000482910431   -0.1000
7      C7      1.5870   -1.5290   -1.1984 C.ar     1 ZINC000482910431   -0.0900
8      C8      2.2228   -1.9921   -2.3337 C.ar     1 ZINC000482910431   -0.1200
9      C9      2.0392   -1.3395   -3.5456 C.ar     1 ZINC000482910431    0.1700
10     N10     2.6816   -1.8065   -4.6979 N.am     1 ZINC000482910431   -0.6800
11     C11     2.8999   -3.1265   -4.8596 C.2      1 ZINC000482910431    0.7100
12     O12     2.4543   -3.9197   -4.0530 O.2      1 ZINC000482910431   -0.5500
13     N13     3.6123   -3.5674   -5.9154 N.am     1 ZINC000482910431   -0.7300
14     C14     3.8496   -5.0023   -6.0912 C.3      1 ZINC000482910431    0.1400
15     H15     2.9914   -5.5757   -5.7409 H        1 ZINC000482910431    0.1400
16     C16     4.1466   -5.3240   -7.5742 C.3      1 ZINC000482910431   -0.1400
17     C17     5.2087   -6.4387   -7.4481 C.3      1 ZINC000482910431    0.0900
18     N18     5.8498   -6.2231   -6.1456 N.am     1 ZINC000482910431   -0.5600
19     C19     7.0784   -6.7777   -5.7687 C.ar     1 ZINC000482910431    0.2000
20     C20     7.5445   -6.6175   -4.4706 C.ar     1 ZINC000482910431   -0.1600
21     C21     8.7573   -7.1654   -4.0998 C.ar     1 ZINC000482910431   -0.0500
22     C22     9.5084   -7.8737   -5.0202 C.ar     1 ZINC000482910431   -0.1000
23     Cl23   11.0320   -8.5608   -4.5506 Cl       1 ZINC000482910431   -0.0500
24     C24     9.0461   -8.0362   -6.3169 C.ar     1 ZINC000482910431    0.1400
25     F25     9.7811   -8.7289   -7.2142 F        1 ZINC000482910431   -0.1200
26     C26     7.8301   -7.4938   -6.6908 C.ar     1 ZINC000482910431   -0.1900
27     C27     5.1037   -5.4252   -5.3583 C.2      1 ZINC000482910431    0.5000
28     O28     5.3971   -5.0923   -4.2295 O.2      1 ZINC000482910431   -0.4800
29     C29     1.2165   -0.2227   -3.6118 C.ar     1 ZINC000482910431   -0.1400
30     C30     0.5794    0.2322   -2.4740 C.ar     1 ZINC000482910431   -0.0900
31     H31     0.1392   -1.8277    0.9611 H        1 ZINC000482910431    0.0800
32     H32     1.5300   -0.7732    1.3105 H        1 ZINC000482910431    0.0700
33     H33    -0.0503   -0.4392    2.0586 H        1 ZINC000482910431    0.0700
34     H34    -1.9401    0.4077    0.6608 H        1 ZINC000482910431    0.0700
35     H35    -1.7062    0.6770   -1.0831 H        1 ZINC000482910431    0.0700
36     H36    -1.7506   -0.9808   -0.4367 H        1 ZINC000482910431    0.0800
37     H37     1.7297   -2.0360   -0.2555 H        1 ZINC000482910431    0.1400
38     H38     2.8623   -2.8607   -2.2789 H        1 ZINC000482910431    0.1400
39     H39     2.9697   -1.1800   -5.3801 H        1 ZINC000482910431    0.4100
40     H40     3.9678   -2.9346   -6.5588 H        1 ZINC000482910431    0.4000
41     H41     3.2537   -5.6914   -8.0800 H        1 ZINC000482910431    0.1100
42     H42     4.5540   -4.4534   -8.0882 H        1 ZINC000482910431    0.1000
43     H43     4.7322   -7.4186   -7.4763 H        1 ZINC000482910431    0.0900
44     H44     5.9431   -6.3523   -8.2489 H        1 ZINC000482910431    0.1000
45     H45     6.9592   -6.0643   -3.7510 H        1 ZINC000482910431    0.1700
46     H46     9.1196   -7.0401   -3.0901 H        1 ZINC000482910431    0.1500
47     H47     7.4692   -7.6204   -7.7008 H        1 ZINC000482910431    0.1500
48     H48     1.0717    0.2870   -4.5529 H        1 ZINC000482910431    0.1300
49     H49    -0.0609    1.1005   -2.5249 H        1 ZINC000482910431    0.1300
@<TRIPOS>BOND
1     1     2     1
2     1     31    1
3     1     32    1
4     1     33    1
5     2     3     1
6     2     4     1
7     2     6     1
8     3     34    1
9     3     35    1
10    3     36    1
11    4     5     3
12    6     30    ar
13    6     7     ar
14    7     8     ar
15    7     37    1
16    8     9     ar
17    8     38    1
18    9     10    1
19    9     29    ar
20    10    11    am
21    10    39    1
22    11    12    2
23    11    13    am
24    13    14    1
25    13    40    1
26    14    15    1
27    14    27    1
28    14    16    1
29    16    17    1
30    16    41    1
31    16    42    1
32    17    18    1
33    17    43    1
34    17    44    1
35    18    19    1
36    18    27    am
37    19    26    ar
38    19    20    ar
39    20    21    ar
40    20    45    1
41    21    22    ar
42    21    46    1
43    22    23    1
44    22    24    ar
45    24    25    1
46    24    26    ar
47    26    47    1
48    27    28    2
49    29    30    ar
50    29    48    1
51    30    49    1
@<TRIPOS>SUBSTRUCTURE
1   ZINC000482910431 1     RESIDUE    1   A     ZIN   1
@<TRIPOS>MOLECULE
ZINC001461256440
55	55	1	0	0
SMALL
USER_CHARGES
@<TRIPOS>ATOM
1      C1     -0.0187    1.5258    0.0104 C.3      1 ZINC001461256440   -0.1500
2      C2      0.0021   -0.0041    0.0020 C.3      1 ZINC001461256440    0.0600
3      O3     -1.3601   -0.5067    0.0123 O.3      1 ZINC001461256440   -0.3600
4      C4     -1.5179   -1.8396    0.0067 C.2      1 ZINC001461256440    0.4400
5      O5     -0.5499   -2.5625   -0.0065 O.2      1 ZINC001461256440   -0.4800
6      C6     -2.9025   -2.4345    0.0167 C.3      1 ZINC001461256440    0.1400
7      N7     -2.8060   -3.8963    0.0079 N.pl3    1 ZINC001461256440   -0.3800
8      N8     -2.7564   -4.7122   -1.1295 N.2      1 ZINC001461256440   -0.2800
9      C9     -2.6722   -5.9585   -0.7397 C.2      1 ZINC001461256440    0.1000
10     C10    -2.5951   -7.1622   -1.6431 C.3      1 ZINC001461256440   -0.0700
11     C11    -2.6650   -5.9823    0.6576 C.2      1 ZINC001461256440   -0.2700
12     C12    -2.7431   -4.6964    1.0967 C.2      1 ZINC001461256440    0.3100
13     N13    -2.7632   -4.2799    2.4277 N.am     1 ZINC001461256440   -0.6500
14     C14    -2.7026   -5.1902    3.4197 C.2      1 ZINC001461256440    0.5200
15     O15    -2.6307   -6.3717    3.1550 O.2      1 ZINC001461256440   -0.5000
16     C16    -2.7243   -4.7402    4.8577 C.3      1 ZINC001461256440   -0.1300
17     C17    -2.6448   -5.9616    5.7756 C.3      1 ZINC001461256440   -0.1100
18     C18    -2.6668   -5.5047    7.2356 C.3      1 ZINC001461256440   -0.1100
19     C19    -2.5873   -6.7262    8.1536 C.3      1 ZINC001461256440   -0.1200
20     C20    -2.6089   -6.2761    9.5916 C.2      1 ZINC001461256440    0.4600
21     O21    -2.6806   -5.0992    9.8553 O.2      1 ZINC001461256440   -0.5000
22     O22    -2.5486   -7.1828   10.5796 O.3      1 ZINC001461256440   -0.3500
23     C23    -2.5740   -6.6774   11.9406 C.3      1 ZINC001461256440    0.1200
24     C24    -3.8726   -5.9023   12.1726 C.3      1 ZINC001461256440   -0.1800
25     C25    -2.4973   -7.8492   12.9213 C.3      1 ZINC001461256440   -0.1400
26     C26    -1.3789   -5.7481   12.1619 C.3      1 ZINC001461256440   -0.1800
27     H27     1.0039    1.9031    0.0027 H        1 ZINC001461256440    0.0800
28     H28    -0.5459    1.8868   -0.8726 H        1 ZINC001461256440    0.0700
29     H29    -0.5289    1.8773    0.9072 H        1 ZINC001461256440    0.0700
30     H30     0.5123   -0.3556   -0.8948 H        1 ZINC001461256440    0.0700
31     H31     0.5293   -0.3651    0.8851 H        1 ZINC001461256440    0.0700
32     H32    -3.4306   -2.1106    0.9135 H        1 ZINC001461256440    0.1300
33     H33    -3.4476   -2.1011   -0.8663 H        1 ZINC001461256440    0.1400
34     H34    -1.5512   -7.3839   -1.8648 H        1 ZINC001461256440    0.0800
35     H35    -3.0510   -8.0188   -1.1467 H        1 ZINC001461256440    0.0800
36     H36    -3.1275   -6.9545   -2.5714 H        1 ZINC001461256440    0.0700
37     H37    -2.6046   -6.8640    1.2785 H        1 ZINC001461256440    0.1800
38     H38    -2.8207   -3.3350    2.6393 H        1 ZINC001461256440    0.4100
39     H39    -1.8722   -4.0873    5.0470 H        1 ZINC001461256440    0.1000
40     H40    -3.6487   -4.1972    5.0546 H        1 ZINC001461256440    0.1000
41     H41    -3.4969   -6.6144    5.5863 H        1 ZINC001461256440    0.0800
42     H42    -1.7204   -6.5045    5.5787 H        1 ZINC001461256440    0.0800
43     H43    -1.8147   -4.8519    7.4249 H        1 ZINC001461256440    0.0700
44     H44    -3.5912   -4.9618    7.4326 H        1 ZINC001461256440    0.0700
45     H45    -3.4394   -7.3790    7.9643 H        1 ZINC001461256440    0.1100
46     H46    -1.6629   -7.2691    7.9566 H        1 ZINC001461256440    0.1100
47     H47    -4.7240   -6.5644   12.0149 H        1 ZINC001461256440    0.0600
48     H48    -3.8917   -5.5229   13.1943 H        1 ZINC001461256440    0.0700
49     H49    -3.9273   -5.0675   11.4739 H        1 ZINC001461256440    0.0800
50     H50    -1.5722   -8.4014   12.7560 H        1 ZINC001461256440    0.0700
51     H51    -2.5164   -7.4698   13.9429 H        1 ZINC001461256440    0.0800
52     H52    -3.3488   -8.5113   12.7636 H        1 ZINC001461256440    0.0700
53     H53    -1.4336   -4.9132   11.4632 H        1 ZINC001461256440    0.0800
54     H54    -1.3980   -5.3687   13.1835 H        1 ZINC001461256440    0.0700
55     H55    -0.4538   -6.3002   11.9966 H        1 ZINC001461256440    0.0600
@<TRIPOS>BOND
1     1     2     1
2     1     27    1
3     1     28    1
4     1     29    1
5     2     3     1
6     2     30    1
7     2     31    1
8     3     4     1
9     4     5     2
10    4     6     1
11    6     7     1
12    6     32    1
13    6     33    1
14    7     12    1
15    7     8     1
16    8     9     2
17    9     10    1
18    9     11    1
19    10    34    1
20    10    35    1
21    10    36    1
22    11    12    2
23    11    37    1
24    12    13    1
25    13    14    am
26    13    38    1
27    14    15    2
28    14    16    1
29    16    17    1
30    16    39    1
31    16    40    1
32    17    18    1
33    17    41    1
34    17    42    1
35    18    19    1
36    18    43    1
37    18    44    1
38    19    20    1
39    19    45    1
40    19    46    1
41    20    21    2
42    20    22    1
43    22    23    1
44    23    24    1
45    23    25    1
46    23    26    1
47    24    47    1
48    24    48    1
49    24    49    1
50    25    50    1
51    25    51    1
52    25    52    1
53    26    53    1
54    26    54    1
55    26    55    1
@<TRIPOS>SUBSTRUCTURE
1   ZINC001461256440 1     RESIDUE    1   A     ZIN   1
@<TRIPOS>MOLECULE
ZINC000163855860
50	53	1	0	0
SMALL
USER_CHARGES
@<TRIPOS>ATOM
1      C1      4.6519    6.3263    3.5671 C.3      1 ZINC000163855860   -0.1300
2      C2      5.5245    5.6960    2.5124 C.ar     1 ZINC000163855860   -0.0600
3      C3      4.9865    4.7822    1.6199 C.ar     1 ZINC000163855860    0.1400
4      N4      3.6307    4.4439    1.6969 N.am     1 ZINC000163855860   -0.6700
5      C5      2.9854    3.9929    0.6029 C.2      1 ZINC000163855860    0.5100
6      O6      3.5498    3.9771   -0.4705 O.2      1 ZINC000163855860   -0.5100
7      C7      1.5628    3.5083    0.7135 C.3      1 ZINC000163855860   -0.1300
8      C8      1.0701    3.0548   -0.6622 C.3      1 ZINC000163855860   -0.1100
9      H9      1.2467    3.8255   -1.4125 H        1 ZINC000163855860    0.1100
10     C10     1.7367    1.7224   -1.0740 C.3      1 ZINC000163855860    0.0600
11     O11     0.7014    1.0117   -1.8155 O.3      1 ZINC000163855860   -0.3500
12     C12    -0.5086    1.3481   -1.3463 C.2      1 ZINC000163855860    0.4800
13     O13    -1.5151    0.6951   -1.4888 O.2      1 ZINC000163855860   -0.4500
14     C14    -0.4248    2.6684   -0.6115 C.3      1 ZINC000163855860   -0.1800
15     C15     5.7922    4.2062    0.6447 C.ar     1 ZINC000163855860   -0.1100
16     C16     7.1315    4.5377    0.5639 C.ar     1 ZINC000163855860   -0.1100
17     C17     7.6780    5.4430    1.4510 C.ar     1 ZINC000163855860   -0.1000
18     C18     6.8774    6.0266    2.4342 C.ar     1 ZINC000163855860   -0.1100
19     C19     7.4601    6.9971    3.3855 C.2      1 ZINC000163855860    0.5700
20     O20     6.9637    8.0997    3.5093 O.2      1 ZINC000163855860   -0.5300
21     N21     8.5415    6.6592    4.1153 N.am     1 ZINC000163855860   -0.6100
22     C22     9.2095    7.6467    4.9764 C.3      1 ZINC000163855860    0.1200
23     C23     9.0535    7.1971    6.4376 C.3      1 ZINC000163855860   -0.0600
24     C24     9.3650    5.7188    6.5356 C.2      1 ZINC000163855860   -0.1700
25     C25     9.3801    4.8603    5.4984 C.2      1 ZINC000163855860   -0.1300
26     C26     9.6858    3.5513    5.8572 C.2      1 ZINC000163855860   -0.1200
27     C27     9.9185    3.3485    7.1501 C.2      1 ZINC000163855860   -0.2100
28     S28     9.7554    4.8647    8.0231 S.3      1 ZINC000163855860    0.1100
29     C29     9.0880    5.2957    4.0670 C.3      1 ZINC000163855860    0.1700
30     H30     4.7399    5.7626    4.4959 H        1 ZINC000163855860    0.0700
31     H31     4.9704    7.3551    3.7349 H        1 ZINC000163855860    0.0900
32     H32     3.6143    6.3170    3.2333 H        1 ZINC000163855860    0.0700
33     H33     3.1553    4.5339    2.5377 H        1 ZINC000163855860    0.4100
34     H34     0.9303    4.3182    1.0771 H        1 ZINC000163855860    0.1100
35     H35     1.5172    2.6711    1.4099 H        1 ZINC000163855860    0.1100
36     H36     2.0302    1.1547   -0.1910 H        1 ZINC000163855860    0.0800
37     H37     2.6006    1.9100   -1.7116 H        1 ZINC000163855860    0.1200
38     H38    -1.0289    3.4224   -1.1161 H        1 ZINC000163855860    0.1200
39     H39    -0.7510    2.5489    0.4217 H        1 ZINC000163855860    0.1200
40     H40     5.3702    3.4975   -0.0524 H        1 ZINC000163855860    0.1500
41     H41     7.7525    4.0872   -0.1962 H        1 ZINC000163855860    0.1300
42     H42     8.7250    5.6994    1.3846 H        1 ZINC000163855860    0.1300
43     H43    10.2672    7.7010    4.7188 H        1 ZINC000163855860    0.0800
44     H44     8.7462    8.6240    4.8402 H        1 ZINC000163855860    0.1000
45     H45     8.0308    7.3769    6.7691 H        1 ZINC000163855860    0.0900
46     H46     9.7446    7.7577    7.0671 H        1 ZINC000163855860    0.0900
47     H47     9.7309    2.7519    5.1324 H        1 ZINC000163855860    0.1400
48     H48    10.1700    2.3974    7.5958 H        1 ZINC000163855860    0.1700
49     H49     8.3589    4.6215    3.6175 H        1 ZINC000163855860    0.1000
50     H50    10.0080    5.2871    3.4825 H        1 ZINC000163855860    0.0900
@<TRIPOS>BOND
1     1     2     1
2     1     30    1
3     1     31    1
4     1     32    1
5     2     18    ar
6     2     3     ar
7     3     4     1
8     3     15    ar
9     4     5     am
10    4     33    1
11    5     6     2
12    5     7     1
13    7     8     1
14    7     34    1
15    7     35    1
16    8     9     1
17    8     14    1
18    8     10    1
19    10    11    1
20    10    36    1
21    10    37    1
22    11    12    1
23    12    13    2
24    12    14    1
25    14    38    1
26    14    39    1
27    15    16    ar
28    15    40    1
29    16    17    ar
30    16    41    1
31    17    18    ar
32    17    42    1
33    18    19    1
34    19    20    2
35    19    21    am
36    21    29    1
37    21    22    1
38    22    23    1
39    22    43    1
40    22    44    1
41    23    24    1
42    23    45    1
43    23    46    1
44    24    28    1
45    24    25    2
46    25    26    1
47    25    29    1
48    26    27    2
49    26    47    1
50    27    28    1
51    27    48    1
52    29    49    1
53    29    50    1
@<TRIPOS>SUBSTRUCTURE
1   ZINC000163855860 1     RESIDUE    1   A     ZIN   1
@<TRIPOS>MOLECULE
ZINC000271662144
44	45	1	0	0
SMALL
USER_CHARGES
@<TRIPOS>ATOM
1      C1     -0.1558    1.4125   -0.0111 C.3      1 ZINC000271662144   -0.1400
2      C2     -0.0724   -0.1135   -0.0830 C.3      1 ZINC000271662144    0.1200
3      H3      0.4213   -0.4929    0.8116 H        1 ZINC000271662144    0.0600
4      N4      0.6972   -0.5064   -1.2710 N.3      1 ZINC000271662144   -0.6700
5      C5      2.1411   -0.4028   -1.0208 C.3      1 ZINC000271662144    0.1300
6      H6      2.3289    0.3946   -0.3017 H        1 ZINC000271662144    0.1100
7      C7      2.6577   -1.7286   -0.4587 C.3      1 ZINC000271662144   -0.2000
8      C8      4.1260   -1.5747   -0.0569 C.3      1 ZINC000271662144    0.4600
9      F9      4.2594   -0.4891    0.8154 F        1 ZINC000271662144   -0.1800
10     F10     4.5597   -2.7417    0.5812 F        1 ZINC000271662144   -0.1800
11     F11     4.9014   -1.3524   -1.2000 F        1 ZINC000271662144   -0.1700
12     C12     2.8536   -0.0929   -2.3120 C.ar     1 ZINC000271662144   -0.0900
13     C13     2.4515   -0.7018   -3.4862 C.ar     1 ZINC000271662144   -0.0600
14     C14     3.1041   -0.4184   -4.6709 C.ar     1 ZINC000271662144   -0.1600
15     C15     4.1609    0.4762   -4.6816 C.ar     1 ZINC000271662144    0.1000
16     F16     4.7994    0.7543   -5.8393 F        1 ZINC000271662144   -0.1400
17     C17     4.5625    1.0858   -3.5051 C.ar     1 ZINC000271662144   -0.1500
18     C18     3.9052    0.8044   -2.3224 C.ar     1 ZINC000271662144   -0.0700
19     C19    -1.4624   -0.6889   -0.1721 C.ar     1 ZINC000271662144   -0.1100
20     C20    -2.1261   -0.7078   -1.3842 C.ar     1 ZINC000271662144   -0.0400
21     C21    -3.4013   -1.2357   -1.4659 C.ar     1 ZINC000271662144   -0.1400
22     C22    -4.0122   -1.7449   -0.3355 C.ar     1 ZINC000271662144   -0.0200
23     C23    -3.3480   -1.7268    0.8769 C.ar     1 ZINC000271662144   -0.6800
24     S24    -4.1270   -2.3754    2.3181 S.o2     1 ZINC000271662144    2.7000
25     N25    -3.7345   -3.9818    2.4065 N.am     1 ZINC000271662144   -1.2500
26     O26    -3.5017   -1.7478    3.4291 O.2      1 ZINC000271662144   -0.9600
27     O27    -5.5264   -2.3168    2.0786 O.2      1 ZINC000271662144   -0.9600
28     C28    -2.0715   -1.2030    0.9577 C.ar     1 ZINC000271662144   -0.0100
29     H29     0.8496    1.8287    0.0533 H        1 ZINC000271662144    0.0600
30     H30    -0.6495    1.7920   -0.9058 H        1 ZINC000271662144    0.0700
31     H31    -0.7269    1.7041    0.8704 H        1 ZINC000271662144    0.0600
32     H32     0.4482   -1.4368   -1.5717 H        1 ZINC000271662144    0.3500
33     H33     2.0691   -2.0067    0.4156 H        1 ZINC000271662144    0.1100
34     H34     2.5685   -2.5049   -1.2186 H        1 ZINC000271662144    0.1200
35     H35     1.6271   -1.3995   -3.4776 H        1 ZINC000271662144    0.1300
36     H36     2.7903   -0.8947   -5.5879 H        1 ZINC000271662144    0.1400
37     H37     5.3869    1.7834   -3.5122 H        1 ZINC000271662144    0.1400
38     H38     4.2181    1.2801   -1.4047 H        1 ZINC000271662144    0.1300
39     H39    -1.6488   -0.3099   -2.2675 H        1 ZINC000271662144    0.1400
40     H40    -3.9203   -1.2499   -2.4130 H        1 ZINC000271662144    0.1400
41     H41    -5.0087   -2.1566   -0.3992 H        1 ZINC000271662144    0.1400
42     H42    -3.6695   -4.4183    3.2703 H        1 ZINC000271662144    0.4200
43     H43    -3.5697   -4.4862    1.5946 H        1 ZINC000271662144    0.4200
44     H44    -1.5525   -1.1888    1.9047 H        1 ZINC000271662144    0.1400
@<TRIPOS>BOND
1     1     2     1
2     1     29    1
3     1     30    1
4     1     31    1
5     2     3     1
6     2     4     1
7     2     19    1
8     4     5     1
9     4     32    1
10    5     6     1
11    5     7     1
12    5     12    1
13    7     8     1
14    7     33    1
15    7     34    1
16    8     9     1
17    8     10    1
18    8     11    1
19    12    18    ar
20    12    13    ar
21    13    14    ar
22    13    35    1
23    14    15    ar
24    14    36    1
25    15    16    1
26    15    17    ar
27    17    18    ar
28    17    37    1
29    18    38    1
30    19    28    ar
31    19    20    ar
32    20    21    ar
33    20    39    1
34    21    22    ar
35    21    40    1
36    22    23    ar
37    22    41    1
38    23    24    1
39    23    28    ar
40    24    25    am
41    24    26    2
42    24    27    2
43    25    42    1
44    25    43    1
45    28    44    1
@<TRIPOS>SUBSTRUCTURE
1   ZINC000271662144 1     RESIDUE    1   A     ZIN   1
@<TRIPOS>MOLECULE
ZINC000880838037
43	44	1	0	0
SMALL
USER_CHARGES
@<TRIPOS>ATOM
1      C1      1.0910    1.4736   -0.2787 C.3      1 ZINC000880838037    0.0300
2      O2      1.1578    0.0464   -0.3070 O.3      1 ZINC000880838037   -0.3100
3      C3      1.2006   -0.5931    0.8913 C.ar     1 ZINC000880838037    0.1400
4      C4      1.1731    0.1386    2.0701 C.ar     1 ZINC000880838037   -0.2200
5      C5      1.2166   -0.5104    3.2896 C.ar     1 ZINC000880838037   -0.0700
6      C6      1.2882   -1.8889    3.3391 C.ar     1 ZINC000880838037   -0.1500
7      C7      1.3165   -2.6265    2.1621 C.ar     1 ZINC000880838037    0.1800
8      N8      1.3890   -4.0230    2.2122 N.am     1 ZINC000880838037   -0.6700
9      C9      2.0940   -4.6266    3.1895 C.2      1 ZINC000880838037    0.5200
10     O10     2.5974   -3.9640    4.0718 O.2      1 ZINC000880838037   -0.4900
11     C11     2.2567   -6.1247    3.1859 C.3      1 ZINC000880838037   -0.0600
12     C12     3.0806   -6.5434    4.3763 C.2      1 ZINC000880838037    0.1000
13     C13     2.6597   -7.4471    5.2618 C.2      1 ZINC000880838037   -0.2600
14     S14     3.9141   -7.6422    6.4832 S.3      1 ZINC000880838037    0.1300
15     C15     4.8874   -6.4862    5.6836 C.2      1 ZINC000880838037    0.0100
16     S16     6.4856   -5.9701    6.2167 S.3      1 ZINC000880838037    0.1000
17     C17     6.6623   -6.9830    7.7063 C.3      1 ZINC000880838037   -0.1500
18     H18     6.5159   -8.0326    7.4514 H        1 ZINC000880838037    0.1200
19     C19     5.6164   -6.5582    8.7390 C.3      1 ZINC000880838037   -0.1500
20     C20     8.0422   -6.7936    8.2818 C.2      1 ZINC000880838037    0.5400
21     N21     8.5922   -7.7586    9.0452 N.am     1 ZINC000880838037   -0.8400
22     O22     8.6577   -5.7729    8.0580 O.2      1 ZINC000880838037   -0.5200
23     N23     4.2802   -6.0487    4.6236 N.2      1 ZINC000880838037   -0.4200
24     C24     1.2662   -1.9770    0.9370 C.ar     1 ZINC000880838037   -0.1500
25     C25     1.2967   -2.7739   -0.3418 C.3      1 ZINC000880838037   -0.1000
26     H26     1.9689    1.8683    0.2327 H        1 ZINC000880838037    0.0600
27     H27     1.0621    1.8563   -1.2990 H        1 ZINC000880838037    0.1000
28     H28     0.1910    1.7848    0.2516 H        1 ZINC000880838037    0.0600
29     H29     1.1179    1.2166    2.0345 H        1 ZINC000880838037    0.1300
30     H30     1.1951    0.0614    4.2055 H        1 ZINC000880838037    0.1300
31     H31     1.3225   -2.3936    4.2933 H        1 ZINC000880838037    0.1400
32     H32     0.9318   -4.5566    1.5435 H        1 ZINC000880838037    0.4100
33     H33     1.2757   -6.5969    3.2388 H        1 ZINC000880838037    0.1200
34     H34     2.7595   -6.4334    2.2694 H        1 ZINC000880838037    0.1200
35     H35     1.7142   -7.9683    5.2352 H        1 ZINC000880838037    0.1800
36     H36     5.7628   -5.5086    8.9939 H        1 ZINC000880838037    0.0900
37     H37     4.6183   -6.6952    8.3228 H        1 ZINC000880838037    0.0800
38     H38     5.7228   -7.1682    9.6360 H        1 ZINC000880838037    0.0800
39     H39     8.0999   -8.5750    9.2242 H        1 ZINC000880838037    0.4000
40     H40     9.4804   -7.6367    9.4156 H        1 ZINC000880838037    0.4100
41     H41     0.2781   -3.0238   -0.6385 H        1 ZINC000880838037    0.0700
42     H42     1.7693   -2.1834   -1.1267 H        1 ZINC000880838037    0.0700
43     H43     1.8648   -3.6908   -0.1850 H        1 ZINC000880838037    0.0600
@<TRIPOS>BOND
1     1     2     1
2     1     26    1
3     1     27    1
4     1     28    1
5     2     3     1
6     3     24    ar
7     3     4     ar
8     4     5     ar
9     4     29    1
10    5     6     ar
11    5     30    1
12    6     7     ar
13    6     31    1
14    7     8     1
15    7     24    ar
16    8     9     am
17    8     32    1
18    9     10    2
19    9     11    1
20    11    12    1
21    11    33    1
22    11    34    1
23    12    23    1
24    12    13    2
25    13    14    1
26    13    35    1
27    14    15    1
28    15    16    1
29    15    23    2
30    16    17    1
31    17    18    1
32    17    19    1
33    17    20    1
34    19    36    1
35    19    37    1
36    19    38    1
37    20    21    am
38    20    22    2
39    21    39    1
40    21    40    1
41    24    25    1
42    25    41    1
43    25    42    1
44    25    43    1
@<TRIPOS>SUBSTRUCTURE
1   ZINC000880838037 1     RESIDUE    1   A     ZIN   1
@<TRIPOS>MOLECULE
ZINC000546142192
59	61	1	0	0
SMALL
USER_CHARGES
@<TRIPOS>ATOM
1      C1      4.0096    1.5440    2.5738 C.3      1 ZINC000546142192    0.0300
2      O2      3.9983    0.1158    2.8357 O.3      1 ZINC000546142192   -0.3600
3      C3      2.8762   -0.5520    2.5247 C.2      1 ZINC000546142192    0.4600
4      O4      1.9346    0.0374    2.0493 O.2      1 ZINC000546142192   -0.5100
5      C5      2.7909   -2.0367    2.7684 C.3      1 ZINC000546142192   -0.0800
6      H6      3.5667   -2.5441    2.1952 H        1 ZINC000546142192    0.1100
7      C7      2.9893   -2.3211    4.2586 C.3      1 ZINC000546142192   -0.1500
8      C8      1.4167   -2.5472    2.3302 C.3      1 ZINC000546142192   -0.0600
9      C9      1.3741   -4.0482    2.4587 C.ar     1 ZINC000546142192   -0.1000
10     C10     1.7588   -4.8429    1.3945 C.ar     1 ZINC000546142192   -0.0900
11     C11     1.7213   -6.2188    1.5092 C.ar     1 ZINC000546142192   -0.1200
12     C12     1.2968   -6.8038    2.6949 C.ar     1 ZINC000546142192    0.1600
13     N13     1.2581   -8.1976    2.8146 N.am     1 ZINC000546142192   -0.6900
14     C14     2.1710   -8.9545    2.1742 C.2      1 ZINC000546142192    0.7100
15     O15     3.0850   -8.4251    1.5720 O.2      1 ZINC000546142192   -0.5700
16     N16     2.0708  -10.2983    2.2013 N.am     1 ZINC000546142192   -0.7400
17     C17     3.0632  -11.1210    1.5053 C.3      1 ZINC000546142192    0.2300
18     C18     2.7258  -12.5782    1.6894 C.2      1 ZINC000546142192    0.1800
19     N19     3.1449  -13.3387    2.6635 N.2      1 ZINC000546142192   -0.4700
20     C20     2.6461  -14.5738    2.5065 C.2      1 ZINC000546142192   -0.0300
21     C21     1.8891  -14.5789    1.3927 C.2      1 ZINC000546142192   -0.0400
22     N22     1.9350  -13.3118    0.8769 N.pl3    1 ZINC000546142192   -0.4500
23     C23     1.2594  -12.8415   -0.3350 C.3      1 ZINC000546142192    0.1100
24     C24     2.2235  -12.9221   -1.5202 C.3      1 ZINC000546142192   -0.0900
25     C25     1.5285  -12.4384   -2.7669 C.ar     1 ZINC000546142192   -0.0900
26     C26     0.8339  -13.3311   -3.5616 C.ar     1 ZINC000546142192   -0.1100
27     C27     0.1964  -12.8873   -4.7051 C.ar     1 ZINC000546142192   -0.1200
28     C28     0.2532  -11.5508   -5.0536 C.ar     1 ZINC000546142192   -0.1200
29     C29     0.9470  -10.6580   -4.2584 C.ar     1 ZINC000546142192   -0.1200
30     C30     1.5809  -11.1010   -3.1126 C.ar     1 ZINC000546142192   -0.1100
31     C31     0.9112   -6.0029    3.7618 C.ar     1 ZINC000546142192   -0.1500
32     C32     0.9559   -4.6277    3.6425 C.ar     1 ZINC000546142192   -0.0900
33     H33     3.2151    2.0243    3.1448 H        1 ZINC000546142192    0.0600
34     H34     4.9725    1.9601    2.8699 H        1 ZINC000546142192    0.1000
35     H35     3.8496    1.7195    1.5100 H        1 ZINC000546142192    0.0600
36     H36     2.2134   -1.8137    4.8318 H        1 ZINC000546142192    0.0600
37     H37     2.9275   -3.3950    4.4348 H        1 ZINC000546142192    0.0800
38     H38     3.9682   -1.9574    4.5707 H        1 ZINC000546142192    0.0700
39     H39     0.6466   -2.1064    2.9632 H        1 ZINC000546142192    0.0800
40     H40     1.2387   -2.2662    1.2922 H        1 ZINC000546142192    0.0800
41     H41     2.0885   -4.3873    0.4725 H        1 ZINC000546142192    0.1300
42     H42     2.0215   -6.8389    0.6776 H        1 ZINC000546142192    0.1400
43     H43     0.5742   -8.6189    3.3584 H        1 ZINC000546142192    0.4100
44     H44     1.3417  -10.7206    2.6818 H        1 ZINC000546142192    0.4000
45     H45     3.0559  -10.8779    0.4427 H        1 ZINC000546142192    0.0800
46     H46     4.0528  -10.9224    1.9167 H        1 ZINC000546142192    0.1000
47     H47     2.8209  -15.4166    3.1589 H        1 ZINC000546142192    0.1700
48     H48     1.3467  -15.4199    0.9868 H        1 ZINC000546142192    0.1800
49     H49     0.3887  -13.4671   -0.5316 H        1 ZINC000546142192    0.1000
50     H50     0.9405  -11.8086   -0.1956 H        1 ZINC000546142192    0.0900
51     H51     3.0942  -12.2965   -1.3236 H        1 ZINC000546142192    0.0800
52     H52     2.5424  -13.9551   -1.6596 H        1 ZINC000546142192    0.0800
53     H53     0.7896  -14.3752   -3.2893 H        1 ZINC000546142192    0.1200
54     H54    -0.3457  -13.5849   -5.3263 H        1 ZINC000546142192    0.1200
55     H55    -0.2443  -11.2043   -5.9474 H        1 ZINC000546142192    0.1200
56     H56     0.9916   -9.6139   -4.5309 H        1 ZINC000546142192    0.1200
57     H57     2.1230  -10.4035   -2.4913 H        1 ZINC000546142192    0.1200
58     H58     0.5806   -6.4550    4.6853 H        1 ZINC000546142192    0.1300
59     H59     0.6565   -4.0042    4.4721 H        1 ZINC000546142192    0.1300
@<TRIPOS>BOND
1     1     2     1
2     1     33    1
3     1     34    1
4     1     35    1
5     2     3     1
6     3     4     2
7     3     5     1
8     5     6     1
9     5     7     1
10    5     8     1
11    7     36    1
12    7     37    1
13    7     38    1
14    8     9     1
15    8     39    1
16    8     40    1
17    9     32    ar
18    9     10    ar
19    10    11    ar
20    10    41    1
21    11    12    ar
22    11    42    1
23    12    13    1
24    12    31    ar
25    13    14    am
26    13    43    1
27    14    15    2
28    14    16    am
29    16    17    1
30    16    44    1
31    17    18    1
32    17    45    1
33    17    46    1
34    18    22    1
35    18    19    2
36    19    20    1
37    20    21    2
38    20    47    1
39    21    22    1
40    21    48    1
41    22    23    1
42    23    24    1
43    23    49    1
44    23    50    1
45    24    25    1
46    24    51    1
47    24    52    1
48    25    30    ar
49    25    26    ar
50    26    27    ar
51    26    53    1
52    27    28    ar
53    27    54    1
54    28    29    ar
55    28    55    1
56    29    30    ar
57    29    56    1
58    30    57    1
59    31    32    ar
60    31    58    1
61    32    59    1
@<TRIPOS>SUBSTRUCTURE
1   ZINC000546142192 1     RESIDUE    1   A     ZIN   1
@<TRIPOS>MOLECULE
ZINC000194290865
57	59	1	0	0
SMALL
USER_CHARGES
@<TRIPOS>ATOM
1      C1      1.2468    2.3725    0.4276 C.3      1 ZINC000194290865   -0.1500
2      C2      0.9464    0.8725    0.4508 C.3      1 ZINC000194290865    0.0600
3      O3      1.3663    0.2753   -0.8043 O.3      1 ZINC000194290865   -0.3600
4      C4      1.1712   -1.0451   -0.9463 C.2      1 ZINC000194290865    0.4700
5      O5      0.6663   -1.6809   -0.0514 O.2      1 ZINC000194290865   -0.4900
6      C6      1.5819   -1.7347   -2.2218 C.3      1 ZINC000194290865   -0.0600
7      C7      1.2275   -3.2217   -2.1589 C.3      1 ZINC000194290865   -0.0700
8      C8      1.9450   -3.8673   -0.9717 C.3      1 ZINC000194290865   -0.1700
9      C9     -0.2847   -3.3788   -1.9877 C.3      1 ZINC000194290865   -0.1600
10     C10     0.8972   -1.0680   -3.4373 C.3      1 ZINC000194290865   -0.1200
11     C11     1.9876   -0.0977   -3.9572 C.3      1 ZINC000194290865    0.0900
12     N12     3.2427   -0.8581   -3.7564 N.am     1 ZINC000194290865   -0.6100
13     C13     4.3055   -0.9036   -4.5839 C.2      1 ZINC000194290865    0.5800
14     O14     5.3114   -1.4977   -4.2490 O.2      1 ZINC000194290865   -0.5000
15     C15     4.2476   -0.2299   -5.9005 C.ar     1 ZINC000194290865    0.0100
16     C16     4.5544   -0.9238   -7.0868 C.ar     1 ZINC000194290865   -0.2200
17     C17     4.4871   -0.2463   -8.3165 C.ar     1 ZINC000194290865    0.3000
18     N18     4.1382    1.0306   -8.3516 N.ar     1 ZINC000194290865   -0.4700
19     C19     3.8461    1.7045   -7.2597 C.ar     1 ZINC000194290865    0.2100
20     C20     3.4563    3.1557   -7.3744 C.3      1 ZINC000194290865   -0.1100
21     C21     3.8818    1.1117   -6.0079 C.ar     1 ZINC000194290865   -0.1800
22     O22     4.8258   -1.1355   -9.2718 O.3      1 ZINC000194290865   -0.0800
23     N23     5.1120   -2.3830   -8.6726 N.2      1 ZINC000194290865   -0.2600
24     C24     4.9626   -2.2958   -7.3860 C.2      1 ZINC000194290865    0.1600
25     C25     5.1716   -3.4035   -6.3858 C.3      1 ZINC000194290865   -0.0400
26     C26     4.3407   -4.6219   -6.7930 C.3      1 ZINC000194290865   -0.1500
27     C27     6.6528   -3.7852   -6.3496 C.3      1 ZINC000194290865   -0.1400
28     C28     3.0919   -1.5544   -2.4650 C.3      1 ZINC000194290865    0.1200
29     H29     2.3173    2.5266    0.2921 H        1 ZINC000194290865    0.0700
30     H30     0.7055    2.8387   -0.3957 H        1 ZINC000194290865    0.0700
31     H31     0.9315    2.8208    1.3698 H        1 ZINC000194290865    0.0800
32     H32     1.4877    0.4063    1.2741 H        1 ZINC000194290865    0.0700
33     H33    -0.1241    0.7184    0.5863 H        1 ZINC000194290865    0.0700
34     H34     1.5412   -3.7093   -3.0819 H        1 ZINC000194290865    0.0900
35     H35     3.0223   -3.7554   -1.0937 H        1 ZINC000194290865    0.0500
36     H36     1.6312   -3.3796   -0.0487 H        1 ZINC000194290865    0.0800
37     H37     1.6925   -4.9267   -0.9269 H        1 ZINC000194290865    0.0600
38     H38    -0.7959   -2.9189   -2.8334 H        1 ZINC000194290865    0.0500
39     H39    -0.5373   -4.4382   -1.9429 H        1 ZINC000194290865    0.0600
40     H40    -0.5985   -2.8911   -1.0647 H        1 ZINC000194290865    0.0800
41     H41     0.6481   -1.8106   -4.1953 H        1 ZINC000194290865    0.0900
42     H42     0.0084   -0.5190   -3.1264 H        1 ZINC000194290865    0.0900
43     H43     1.8354    0.1212   -5.0141 H        1 ZINC000194290865    0.0900
44     H44     1.9964    0.8210   -3.3706 H        1 ZINC000194290865    0.0900
45     H45     2.3761    3.2331   -7.4978 H        1 ZINC000194290865    0.0900
46     H46     3.7577    3.6854   -6.4707 H        1 ZINC000194290865    0.0900
47     H47     3.9532    3.5982   -8.2378 H        1 ZINC000194290865    0.0900
48     H48     3.6378    1.6840   -5.1251 H        1 ZINC000194290865    0.1600
49     H49     4.8595   -3.0646   -5.3979 H        1 ZINC000194290865    0.1100
50     H50     4.6528   -4.9608   -7.7809 H        1 ZINC000194290865    0.0700
51     H51     4.4919   -5.4231   -6.0696 H        1 ZINC000194290865    0.0700
52     H52     3.2855   -4.3500   -6.8188 H        1 ZINC000194290865    0.0600
53     H53     7.2447   -2.9171   -6.0594 H        1 ZINC000194290865    0.0600
54     H54     6.8039   -4.5863   -5.6261 H        1 ZINC000194290865    0.0700
55     H55     6.9649   -4.1240   -7.3374 H        1 ZINC000194290865    0.0600
56     H56     3.5275   -0.9540   -1.6664 H        1 ZINC000194290865    0.0800
57     H57     3.5797   -2.5282   -2.5092 H        1 ZINC000194290865    0.1000
@<TRIPOS>BOND
1     1     2     1
2     1     29    1
3     1     30    1
4     1     31    1
5     2     3     1
6     2     32    1
7     2     33    1
8     3     4     1
9     4     5     2
10    4     6     1
11    6     28    1
12    6     7     1
13    6     10    1
14    7     8     1
15    7     9     1
16    7     34    1
17    8     35    1
18    8     36    1
19    8     37    1
20    9     38    1
21    9     39    1
22    9     40    1
23    10    11    1
24    10    41    1
25    10    42    1
26    11    12    1
27    11    43    1
28    11    44    1
29    12    13    am
30    12    28    1
31    13    14    2
32    13    15    1
33    15    21    ar
34    15    16    ar
35    16    24    1
36    16    17    ar
37    17    18    ar
38    17    22    1
39    18    19    ar
40    19    20    1
41    19    21    ar
42    20    45    1
43    20    46    1
44    20    47    1
45    21    48    1
46    22    23    1
47    23    24    2
48    24    25    1
49    25    26    1
50    25    27    1
51    25    49    1
52    26    50    1
53    26    51    1
54    26    52    1
55    27    53    1
56    27    54    1
57    27    55    1
58    28    56    1
59    28    57    1
@<TRIPOS>SUBSTRUCTURE
1   ZINC000194290865 1     RESIDUE    1   A     ZIN   1
@<TRIPOS>MOLECULE
ZINC000502834785
54	56	1	0	0
SMALL
USER_CHARGES
@<TRIPOS>ATOM
1      C1      0.0133    1.4307    0.0658 C.3      1 ZINC000502834785   -0.1800
2      C2     -0.0203   -0.0985    0.0280 C.3      1 ZINC000502834785    0.0800
3      C3     -1.4737   -0.5763    0.0086 C.3      1 ZINC000502834785   -0.1500
4      O4      0.6488   -0.5607   -1.1471 O.3      1 ZINC000502834785   -0.3800
5      C5      2.0478   -0.7898   -0.9672 C.3      1 ZINC000502834785    0.1000
6      C6      2.6485   -1.2720   -2.2624 C.ar     1 ZINC000502834785   -0.0800
7      C7      2.6928   -2.6250   -2.5423 C.ar     1 ZINC000502834785   -0.1000
8      C8      3.2438   -3.0673   -3.7304 C.ar     1 ZINC000502834785   -0.1000
9      C9      3.7501   -2.1566   -4.6388 C.ar     1 ZINC000502834785   -0.1000
10     C10     4.3513   -2.6389   -5.9339 C.3      1 ZINC000502834785    0.1600
11     N11     3.3078   -2.7112   -6.9596 N.am     1 ZINC000502834785   -0.7300
12     C12     3.6156   -3.1203   -8.2063 C.2      1 ZINC000502834785    0.5100
13     O13     4.7564   -3.4285   -8.4791 O.2      1 ZINC000502834785   -0.5200
14     C14     2.5421   -3.1947   -9.2614 C.3      1 ZINC000502834785    0.0300
15     N15     3.1281   -3.6648  -10.5238 N.3      1 ZINC000502834785   -0.5000
16     C16     4.2448   -2.7930  -10.9467 C.3      1 ZINC000502834785    0.0500
17     C17     4.1832   -2.7940  -12.4945 C.3      1 ZINC000502834785   -0.1300
18     C18     2.6526   -2.8082  -12.7472 C.3      1 ZINC000502834785   -0.1300
19     C19     2.1187   -3.6892  -11.5982 C.3      1 ZINC000502834785    0.1500
20     H20     1.9760   -4.7110  -11.9499 H        1 ZINC000502834785    0.1100
21     C21     0.8123   -3.1346  -11.0915 C.2      1 ZINC000502834785    0.0600
22     N22     0.5839   -1.8892  -10.7618 N.2      1 ZINC000502834785   -0.2900
23     N23    -0.7486   -1.7848  -10.3423 N.pl3    1 ZINC000502834785   -0.4800
24     C24    -1.3094   -3.0089  -10.4321 C.2      1 ZINC000502834785    0.0600
25     C25    -0.3672   -3.8611  -10.8981 C.2      1 ZINC000502834785   -0.2600
26     C26     3.7046   -0.8036   -4.3595 C.ar     1 ZINC000502834785   -0.1000
27     C27     3.1501   -0.3610   -3.1731 C.ar     1 ZINC000502834785   -0.1000
28     H28     1.0487    1.7711    0.0796 H        1 ZINC000502834785    0.0600
29     H29    -0.4878    1.8271   -0.8173 H        1 ZINC000502834785    0.0600
30     H30    -0.4971    1.7833    0.9621 H        1 ZINC000502834785    0.0700
31     H31     0.4807   -0.4949    0.9111 H        1 ZINC000502834785    0.0600
32     H32    -1.9747   -0.1799   -0.8745 H        1 ZINC000502834785    0.0600
33     H33    -1.4976   -1.6657   -0.0183 H        1 ZINC000502834785    0.0600
34     H34    -1.9840   -0.2238    0.9049 H        1 ZINC000502834785    0.0700
35     H35     2.5322    0.1389   -0.6655 H        1 ZINC000502834785    0.0600
36     H36     2.1960   -1.5444   -0.1947 H        1 ZINC000502834785    0.0600
37     H37     2.2972   -3.3365   -1.8326 H        1 ZINC000502834785    0.1300
38     H38     3.2791   -4.1244   -3.9488 H        1 ZINC000502834785    0.1300
39     H39     5.1283   -1.9449   -6.2544 H        1 ZINC000502834785    0.0800
40     H40     4.7854   -3.6278   -5.7869 H        1 ZINC000502834785    0.0800
41     H41     2.3953   -2.4647   -6.7414 H        1 ZINC000502834785    0.4000
42     H42     1.7651   -3.8887   -8.9409 H        1 ZINC000502834785    0.1000
43     H43     2.1080   -2.2058   -9.4084 H        1 ZINC000502834785    0.0800
44     H44     4.1042   -1.7829  -10.5620 H        1 ZINC000502834785    0.0400
45     H45     5.1957   -3.2014  -10.6045 H        1 ZINC000502834785    0.1000
46     H46     4.6382   -1.8921  -12.9040 H        1 ZINC000502834785    0.0800
47     H47     4.6547   -3.6876  -12.9035 H        1 ZINC000502834785    0.0800
48     H48     2.2420   -1.8005  -12.6830 H        1 ZINC000502834785    0.0800
49     H49     2.4258   -3.2570  -13.7143 H        1 ZINC000502834785    0.0800
50     H50    -1.1902   -0.9755  -10.0407 H        1 ZINC000502834785    0.4400
51     H51    -2.3288   -3.2622  -10.1811 H        1 ZINC000502834785    0.1800
52     H52    -0.5006   -4.9169  -11.0822 H        1 ZINC000502834785    0.1500
53     H53     4.0998   -0.0920   -5.0694 H        1 ZINC000502834785    0.1300
54     H54     3.1145    0.6961   -2.9549 H        1 ZINC000502834785    0.1200
@<TRIPOS>BOND
1     1     2     1
2     1     28    1
3     1     29    1
4     1     30    1
5     2     3     1
6     2     4     1
7     2     31    1
8     3     32    1
9     3     33    1
10    3     34    1
11    4     5     1
12    5     6     1
13    5     35    1
14    5     36    1
15    6     27    ar
16    6     7     ar
17    7     8     ar
18    7     37    1
19    8     9     ar
20    8     38    1
21    9     10    1
22    9     26    ar
23    10    11    1
24    10    39    1
25    10    40    1
26    11    12    am
27    11    41    1
28    12    13    2
29    12    14    1
30    14    15    1
31    14    42    1
32    14    43    1
33    15    19    1
34    15    16    1
35    16    17    1
36    16    44    1
37    16    45    1
38    17    18    1
39    17    46    1
40    17    47    1
41    18    19    1
42    18    48    1
43    18    49    1
44    19    20    1
45    19    21    1
46    21    25    1
47    21    22    2
48    22    23    1
49    23    24    1
50    23    50    1
51    24    25    2
52    24    51    1
53    25    52    1
54    26    27    ar
55    26    53    1
56    27    54    1
@<TRIPOS>SUBSTRUCTURE
1   ZINC000502834785 1     RESIDUE    1   A     ZIN   1
@<TRIPOS>MOLECULE
ZINC000986832075
51	53	1	0	0
SMALL
USER_CHARGES
@<TRIPOS>ATOM
1      C1     -0.0228    1.5434    0.0312 C.3      1 ZINC000986832075   -0.1700
2      C2      0.0032    0.0137    0.0147 C.3      1 ZINC000986832075    0.1500
3      H3      0.5170   -0.3313   -0.8825 H        1 ZINC000986832075    0.0900
4      N4      0.7102   -0.4755    1.2009 N.am     1 ZINC000986832075   -0.7200
5      C5      2.0537   -0.5812    1.1888 C.2      1 ZINC000986832075    0.5600
6      O6      2.6788   -0.2708    0.1939 O.2      1 ZINC000986832075   -0.5100
7      C7      2.7679   -1.0754    2.3872 C.ar     1 ZINC000986832075   -0.1300
8      C8      2.0679   -1.4435    3.5407 C.ar     1 ZINC000986832075   -0.1100
9      C9      2.7741   -1.8994    4.6363 C.ar     1 ZINC000986832075    0.0900
10     N10     4.0890   -1.9899    4.6064 N.ar     1 ZINC000986832075   -0.4400
11     C11     4.7897   -1.6545    3.5423 C.ar     1 ZINC000986832075    0.0700
12     C12     4.1638   -1.1931    2.3962 C.ar     1 ZINC000986832075    0.1100
13     F13     4.8886   -0.8510    1.3087 F        1 ZINC000986832075   -0.1000
14     C14    -1.4304   -0.5209    0.0188 C.3      1 ZINC000986832075   -0.1000
15     C15    -2.1886    0.0625    1.2133 C.3      1 ZINC000986832075   -0.1300
16     C16    -3.6128   -0.5016    1.2340 C.3      1 ZINC000986832075    0.1100
17     N17    -4.2436   -0.2407   -0.0670 N.am     1 ZINC000986832075   -0.6100
18     C18    -5.4326    0.3898   -0.1395 C.2      1 ZINC000986832075    0.5200
19     O19    -6.0329    0.6708    0.8761 O.2      1 ZINC000986832075   -0.5300
20     C20    -6.0161    0.7456   -1.4826 C.3      1 ZINC000986832075   -0.0800
21     H21    -5.7658   -0.0314   -2.2049 H        1 ZINC000986832075    0.0900
22     C22    -5.4389    2.0828   -1.9514 C.3      1 ZINC000986832075   -0.1400
23     C23    -7.5372    0.8604   -1.3636 C.3      1 ZINC000986832075   -0.1400
24     C24    -8.3855    0.0727   -2.3641 C.3      1 ZINC000986832075   -0.1800
25     C25    -8.3055   -0.3807   -0.9050 C.3      1 ZINC000986832075   -0.1700
26     C26    -3.5535   -0.6799   -1.2875 C.3      1 ZINC000986832075    0.1000
27     C27    -2.1301   -0.1137   -1.2799 C.3      1 ZINC000986832075   -0.1300
28     H28     0.9985    1.9242    0.0282 H        1 ZINC000986832075    0.0600
29     H29    -0.5489    1.9073   -0.8514 H        1 ZINC000986832075    0.0700
30     H30    -0.5367    1.8884    0.9284 H        1 ZINC000986832075    0.0600
31     H31     0.2113   -0.7233    1.9951 H        1 ZINC000986832075    0.4000
32     H32     0.9908   -1.3720    3.5741 H        1 ZINC000986832075    0.1500
33     H33     2.2413   -2.1858    5.5310 H        1 ZINC000986832075    0.1700
34     H34     5.8658   -1.7445    3.5626 H        1 ZINC000986832075    0.1800
35     H35    -1.4124   -1.6080    0.0962 H        1 ZINC000986832075    0.0800
36     H36    -1.6766   -0.2082    2.1367 H        1 ZINC000986832075    0.0700
37     H37    -2.2286    1.1481    1.1238 H        1 ZINC000986832075    0.0800
38     H38    -3.5776   -1.5760    1.4141 H        1 ZINC000986832075    0.0700
39     H39    -4.1870   -0.0154    2.0226 H        1 ZINC000986832075    0.0900
40     H40    -5.6122    2.8410   -1.1877 H        1 ZINC000986832075    0.0600
41     H41    -4.3675    1.9765   -2.1213 H        1 ZINC000986832075    0.0600
42     H42    -5.9259    2.3835   -2.8791 H        1 ZINC000986832075    0.0700
43     H43    -7.9115    1.8319   -1.0409 H        1 ZINC000986832075    0.1100
44     H44    -9.3181    0.5261   -2.6999 H        1 ZINC000986832075    0.1000
45     H45    -7.8600   -0.5272   -3.1071 H        1 ZINC000986832075    0.0900
46     H46    -7.7274   -1.2789   -0.6881 H        1 ZINC000986832075    0.0900
47     H47    -9.1856   -0.2256   -0.2809 H        1 ZINC000986832075    0.1000
48     H48    -3.5135   -1.7688   -1.3130 H        1 ZINC000986832075    0.0700
49     H49    -4.0887   -0.3112   -2.1627 H        1 ZINC000986832075    0.0900
50     H50    -2.1706    0.9735   -1.3459 H        1 ZINC000986832075    0.0800
51     H51    -1.5764   -0.5100   -2.1311 H        1 ZINC000986832075    0.0800
@<TRIPOS>BOND
1     1     2     1
2     1     28    1
3     1     29    1
4     1     30    1
5     2     3     1
6     2     4     1
7     2     14    1
8     4     5     am
9     4     31    1
10    5     6     2
11    5     7     1
12    7     12    ar
13    7     8     ar
14    8     9     ar
15    8     32    1
16    9     10    ar
17    9     33    1
18    10    11    ar
19    11    12    ar
20    11    34    1
21    12    13    1
22    14    27    1
23    14    15    1
24    14    35    1
25    15    16    1
26    15    36    1
27    15    37    1
28    16    17    1
29    16    38    1
30    16    39    1
31    17    18    am
32    17    26    1
33    18    19    2
34    18    20    1
35    20    21    1
36    20    22    1
37    20    23    1
38    22    40    1
39    22    41    1
40    22    42    1
41    23    25    1
42    23    24    1
43    23    43    1
44    24    25    1
45    24    44    1
46    24    45    1
47    25    46    1
48    25    47    1
49    26    27    1
50    26    48    1
51    26    49    1
52    27    50    1
53    27    51    1
@<TRIPOS>SUBSTRUCTURE
1   ZINC000986832075 1     RESIDUE    1   A     ZIN   1
@<TRIPOS>MOLECULE
ZINC001023148918
49	52	1	0	0
SMALL
USER_CHARGES
@<TRIPOS>ATOM
1      C1     -0.0439    0.3679   -2.2106 C.3      1 ZINC001023148918   -0.0700
2      C2     -0.0176   -0.4499   -0.9450 C.2      1 ZINC001023148918    0.0200
3      N3      0.0132    0.0205    0.2757 N.2      1 ZINC001023148918   -0.2700
4      N4      0.0293   -0.9340    1.1350 N.pl3    1 ZINC001023148918   -0.2500
5      C5      0.0643   -0.7604    2.5892 C.3      1 ZINC001023148918    0.0800
6      C6      0.0087   -2.1358    0.4859 C.2      1 ZINC001023148918   -0.0400
7      C7      0.0167   -3.4724    1.1015 C.2      1 ZINC001023148918    0.6000
8      O8     -0.0542   -3.5856    2.3105 O.2      1 ZINC001023148918   -0.5300
9      N9      0.1024   -4.5712    0.3257 N.am     1 ZINC001023148918   -0.7000
10     C10    -0.0035   -5.9027    0.9274 C.3      1 ZINC001023148918    0.1500
11     H11    -0.6970   -5.8952    1.7682 H        1 ZINC001023148918    0.1200
12     C12     1.3879   -6.4289    1.3599 C.3      1 ZINC001023148918    0.1000
13     N13     1.2545   -7.8971    1.3545 N.am     1 ZINC001023148918   -0.6200
14     C14     2.0063   -8.7567    2.0703 C.2      1 ZINC001023148918    0.5400
15     O15     2.8816   -8.3367    2.7972 O.2      1 ZINC001023148918   -0.5200
16     C16     1.7592  -10.2397    1.9674 C.3      1 ZINC001023148918   -0.1400
17     H17     1.8848  -10.5803    0.9396 H        1 ZINC001023148918    0.1100
18     C18     0.3473  -10.5992    2.4963 C.3      1 ZINC001023148918   -0.1400
19     C19     0.6585  -11.5436    3.6960 C.3      1 ZINC001023148918    0.0600
20     H20    -0.1325  -11.6287    4.4412 H        1 ZINC001023148918    0.1300
21     C21     1.1192  -12.8867    3.0543 C.3      1 ZINC001023148918   -0.1500
22     C22     2.5305  -12.5423    2.5137 C.3      1 ZINC001023148918   -0.1500
23     C23     2.7023  -11.0244    2.9281 C.3      1 ZINC001023148918    0.0900
24     H24     3.7314  -10.6703    2.9891 H        1 ZINC001023148918    0.1400
25     O25     1.9262  -10.9871    4.1763 O.3      1 ZINC001023148918   -0.3600
26     C26     0.1651   -8.2681    0.4396 C.3      1 ZINC001023148918    0.0700
27     C27    -0.4221   -6.9588   -0.1294 C.3      1 ZINC001023148918    0.0900
28     H28     0.0182   -6.7282   -1.0995 H        1 ZINC001023148918    0.0800
29     O29    -1.8450   -7.0444   -0.2296 O.3      1 ZINC001023148918   -0.5500
30     C30    -0.0279   -1.8444   -0.8666 C.2      1 ZINC001023148918   -0.1800
31     H31    -1.0774    0.5742   -2.4885 H        1 ZINC001023148918    0.0800
32     H32     0.4829    1.3080   -2.0467 H        1 ZINC001023148918    0.0700
33     H33     0.4440   -0.1871   -3.0119 H        1 ZINC001023148918    0.0800
34     H34    -0.9519   -0.6431    2.9657 H        1 ZINC001023148918    0.0900
35     H35     0.5231   -1.6359    3.0487 H        1 ZINC001023148918    0.1100
36     H36     0.6476    0.1268    2.8353 H        1 ZINC001023148918    0.0900
37     H37     0.2343   -4.4803   -0.6309 H        1 ZINC001023148918    0.4100
38     H38     2.1506   -6.1146    0.6475 H        1 ZINC001023148918    0.0800
39     H39     1.6333   -6.0739    2.3609 H        1 ZINC001023148918    0.0900
40     H40    -0.1775   -9.7057    2.8343 H        1 ZINC001023148918    0.0800
41     H41    -0.2295  -11.1217    1.7331 H        1 ZINC001023148918    0.0900
42     H42     1.1751  -13.6744    3.8056 H        1 ZINC001023148918    0.0800
43     H43     0.4535  -13.1742    2.2405 H        1 ZINC001023148918    0.0800
44     H44     3.2896  -13.1585    2.9955 H        1 ZINC001023148918    0.0800
45     H45     2.5679  -12.6582    1.4305 H        1 ZINC001023148918    0.0800
46     H46     0.5554   -8.8830   -0.3715 H        1 ZINC001023148918    0.0800
47     H47    -0.6059   -8.8139    0.9833 H        1 ZINC001023148918    0.0900
48     H48    -2.1563   -7.7428   -0.8216 H        1 ZINC001023148918    0.3900
49     H49    -0.0526   -2.5461   -1.6872 H        1 ZINC001023148918    0.1600
@<TRIPOS>BOND
1     1     2     1
2     1     31    1
3     1     32    1
4     1     33    1
5     2     30    1
6     2     3     2
7     3     4     1
8     4     5     1
9     4     6     1
10    5     34    1
11    5     35    1
12    5     36    1
13    6     7     1
14    6     30    2
15    7     8     2
16    7     9     am
17    9     10    1
18    9     37    1
19    10    11    1
20    10    27    1
21    10    12    1
22    12    13    1
23    12    38    1
24    12    39    1
25    13    14    am
26    13    26    1
27    14    15    2
28    14    16    1
29    16    17    1
30    16    23    1
31    16    18    1
32    18    19    1
33    18    40    1
34    18    41    1
35    19    20    1
36    19    25    1
37    19    21    1
38    21    22    1
39    21    42    1
40    21    43    1
41    22    23    1
42    22    44    1
43    22    45    1
44    23    24    1
45    23    25    1
46    26    27    1
47    26    46    1
48    26    47    1
49    27    28    1
50    27    29    1
51    29    48    1
52    30    49    1
@<TRIPOS>SUBSTRUCTURE
1   ZINC001023148918 1     RESIDUE    1   A     ZIN   1
@<TRIPOS>MOLECULE
ZINC001015955459
46	48	1	0	0
SMALL
USER_CHARGES
@<TRIPOS>ATOM
1      C1      5.7791   -1.3471    1.3886 C.3      1 ZINC001015955459   -0.1500
2      C2      4.8207   -0.3488    2.0412 C.3      1 ZINC001015955459   -0.0300
3      C3      5.2933   -0.0437    3.4641 C.3      1 ZINC001015955459   -0.1500
4      C4      4.7970    0.9247    1.2359 C.2      1 ZINC001015955459    0.0600
5      C5      3.7116    1.4813    0.6323 C.2      1 ZINC001015955459   -0.0800
6      C6      2.3360    0.9514    0.6426 C.2      1 ZINC001015955459    0.6100
7      O7      2.0869   -0.0823    1.2330 O.2      1 ZINC001015955459   -0.5300
8      N8      1.3543    1.6124   -0.0022 N.am     1 ZINC001015955459   -0.7100
9      C9     -0.0127    1.0858    0.0080 C.3      1 ZINC001015955459    0.1400
10     H10     0.0021   -0.0041    0.0020 H        1 ZINC001015955459    0.1000
11     C11    -0.7775    1.6045    1.2432 C.3      1 ZINC001015955459   -0.1300
12     C12    -1.9662    2.4065    0.6714 C.3      1 ZINC001015955459    0.0200
13     N13    -2.1773    1.8451   -0.6877 N.3      1 ZINC001015955459   -0.4900
14     C14    -2.9119    2.7901   -1.5394 C.3      1 ZINC001015955459    0.0800
15     C15    -2.0285    3.9679   -1.8609 C.ar     1 ZINC001015955459   -0.1100
16     C16    -2.0288    5.0773   -1.0364 C.ar     1 ZINC001015955459   -0.1100
17     C17    -1.2149    6.1563   -1.3281 C.ar     1 ZINC001015955459   -0.1000
18     C18    -0.4086    6.1305   -2.4501 C.ar     1 ZINC001015955459   -0.1100
19     C19    -0.4118    5.0224   -3.2788 C.ar     1 ZINC001015955459   -0.0300
20     Cl20    0.6004    4.9895   -4.6888 Cl       1 ZINC001015955459   -0.0700
21     C21    -1.2223    3.9410   -2.9835 C.ar     1 ZINC001015955459   -0.1000
22     C22    -0.8015    1.6181   -1.2077 C.3      1 ZINC001015955459    0.0100
23     N23     4.1362    2.6158    0.0127 N.2      1 ZINC001015955459   -0.4600
24     C24     5.4096    2.7530    0.2321 C.2      1 ZINC001015955459    0.1800
25     O25     5.8425    1.7265    0.9777 O.3      1 ZINC001015955459   -0.1900
26     H26     6.7812   -0.9198    1.3549 H        1 ZINC001015955459    0.0600
27     H27     5.7962   -2.2683    1.9711 H        1 ZINC001015955459    0.0700
28     H28     5.4424   -1.5645    0.3750 H        1 ZINC001015955459    0.0600
29     H29     3.8185   -0.7761    2.0750 H        1 ZINC001015955459    0.1300
30     H30     4.6105    0.6675    3.9290 H        1 ZINC001015955459    0.0600
31     H31     5.3104   -0.9649    4.0466 H        1 ZINC001015955459    0.0700
32     H32     6.2954    0.3835    3.4304 H        1 ZINC001015955459    0.0600
33     H33     1.5530    2.4369   -0.4731 H        1 ZINC001015955459    0.4100
34     H34    -1.1380    0.7692    1.8435 H        1 ZINC001015955459    0.0800
35     H35    -0.1357    2.2509    1.8419 H        1 ZINC001015955459    0.0700
36     H36    -2.8546    2.2593    1.2857 H        1 ZINC001015955459    0.0900
37     H37    -1.7162    3.4656    0.6107 H        1 ZINC001015955459    0.0500
38     H38    -3.2058    2.2932   -2.4640 H        1 ZINC001015955459    0.0900
39     H39    -3.8021    3.1363   -1.0141 H        1 ZINC001015955459    0.0900
40     H40    -2.6621    5.0997   -0.1619 H        1 ZINC001015955459    0.1300
41     H41    -1.2125    7.0211   -0.6813 H        1 ZINC001015955459    0.1300
42     H42     0.2237    6.9753   -2.6803 H        1 ZINC001015955459    0.1300
43     H43    -1.2256    3.0759   -3.6302 H        1 ZINC001015955459    0.1300
44     H44    -0.3688    2.5539   -1.5615 H        1 ZINC001015955459    0.0700
45     H45    -0.8130    0.8773   -2.0072 H        1 ZINC001015955459    0.0900
46     H46     6.0232    3.5633   -0.1327 H        1 ZINC001015955459    0.2600
@<TRIPOS>BOND
1     1     2     1
2     1     26    1
3     1     27    1
4     1     28    1
5     2     3     1
6     2     4     1
7     2     29    1
8     3     30    1
9     3     31    1
10    3     32    1
11    4     25    1
12    4     5     2
13    5     6     1
14    5     23    1
15    6     7     2
16    6     8     am
17    8     9     1
18    8     33    1
19    9     10    1
20    9     22    1
21    9     11    1
22    11    12    1
23    11    34    1
24    11    35    1
25    12    13    1
26    12    36    1
27    12    37    1
28    13    14    1
29    13    22    1
30    14    15    1
31    14    38    1
32    14    39    1
33    15    21    ar
34    15    16    ar
35    16    17    ar
36    16    40    1
37    17    18    ar
38    17    41    1
39    18    19    ar
40    18    42    1
41    19    20    1
42    19    21    ar
43    21    43    1
44    22    44    1
45    22    45    1
46    23    24    2
47    24    25    1
48    24    46    1
@<TRIPOS>SUBSTRUCTURE
1   ZINC001015955459 1     RESIDUE    1   A     ZIN   1
@<TRIPOS>MOLECULE
ZINC000291036115
35	37	0	0	0
SMALL
USER_CHARGES
@<TRIPOS>ATOM
1 C1       -0.0187     1.5258     0.0104 C.3    1 <0>      -0.1500
2 C2        0.0021    -0.0041     0.0020 C.3    1 <0>      -0.0400
3 H3        0.5293    -0.3651     0.8851 H      1 <0>       0.0900
4 C4        0.7182    -0.4975    -1.2568 C.3    1 <0>      -0.0200
5 C5        2.1652    -0.0794    -1.2080 C.2    1 <0>       0.1900
6 N6        3.1593    -0.7647    -0.6963 N.2    1 <0>      -0.4500
7 C7        4.2540    -0.0047    -0.8775 C.2    1 <0>       0.1500
8 C8        5.6599    -0.3519    -0.4602 C.3    1 <0>       0.2300
9 N9        6.3303    -1.0661    -1.5495 N.pl3  1 <0>      -0.3900
10 C10       7.4990    -0.7393    -2.1280 C.2    1 <0>       0.2600
11 N11       7.7539    -1.6248    -3.0568 N.2    1 <0>      -0.5400
12 C12       6.7754    -2.5281    -3.1007 C.2    1 <0>       0.2000
13 N13       5.8829    -2.2316    -2.1928 N.2    1 <0>      -0.3100
14 N14       3.8770     1.0837    -1.4790 N.2    1 <0>      -0.3600
15 O15       2.6815     1.0580    -1.6831 O.3    1 <0>       0.0900
16 C16      -1.4117    -0.5257     0.0127 C.ar   1 <0>      -0.0900
17 C17      -2.2749    -0.2021    -1.0172 C.ar   1 <0>      -0.0700
18 C18      -3.5719    -0.6801    -1.0092 C.ar   1 <0>      -0.1400
19 C19      -4.0067    -1.4833     0.0308 C.ar   1 <0>       0.1300
20 F20      -5.2740    -1.9513     0.0394 F      1 <0>      -0.1200
21 C21      -3.1408    -1.8073     1.0630 C.ar   1 <0>      -0.1300
22 Br22     -3.7322    -2.9049     2.4847 Br     1 <0>      -0.0200
23 C23      -1.8425    -1.3322     1.0498 C.ar   1 <0>      -0.0500
24 H24       1.0039     1.9031     0.0027 H      1 <0>       0.0600
25 H25      -0.5459     1.8868    -0.8726 H      1 <0>       0.0700
26 H26      -0.5289     1.8773     0.9072 H      1 <0>       0.0700
27 H27       0.6556    -1.5845    -1.3079 H      1 <0>       0.1200
28 H28       0.2444    -0.0644    -2.1377 H      1 <0>       0.1100
29 H29       6.2080     0.5626    -0.2338 H      1 <0>       0.1300
30 H30       5.6297    -0.9862     0.4257 H      1 <0>       0.1200
31 H31       8.1190     0.1070    -1.8713 H      1 <0>       0.2200
32 H32       6.7293    -3.3711    -3.7742 H      1 <0>       0.2200
33 H33      -1.9359     0.4249    -1.8286 H      1 <0>       0.1400
34 H34      -4.2460    -0.4267    -1.8140 H      1 <0>       0.1500
35 H35      -1.1672    -1.5843     1.8540 H      1 <0>       0.1400
@<TRIPOS>BOND
1    1    2 1
2    1   24 1
3    1   25 1
4    1   26 1
5    2    3 1
6    2    4 1
7    2   16 1
8    4    5 1
9    4   27 1
10    4   28 1
11    5   15 1
12    5    6 2
13    6    7 1
14    7    8 1
15    7   14 2
16    8    9 1
17    8   29 1
18    8   30 1
19    9   13 1
20    9   10 1
21   10   11 2
22   10   31 1
23   11   12 1
24   12   13 2
25   12   32 1
26   14   15 1
27   16   23 ar
28   16   17 ar
29   17   18 ar
30   17   33 1
31   18   19 ar
32   18   34 1
33   19   20 1
34   19   21 ar
35   21   22 1
36   21   23 ar
37   23   35 1
@<TRIPOS>MOLECULE
ZINC000350493047
46	48	0	0	0
SMALL
USER_CHARGES
@<TRIPOS>ATOM
1 C1       -0.1043     2.8422    -0.9730 C.3    1 <0>      -0.1600
2 C2       -0.1775     1.3328    -0.7337 C.3    1 <0>       0.2600
3 H3       -1.2206     1.0166    -0.7247 H      1 <0>       0.1200
4 N4        0.4411     1.0121     0.5550 N.am   1 <0>      -0.7400
5 C5       -0.2819     1.0965     1.6892 C.2    1 <0>       0.7100
6 N6        0.2872     0.8015     2.8748 N.am   1 <0>      -0.8600
7 O7       -1.4477     1.4389     1.6430 O.2    1 <0>      -0.5900
8 C8        0.5561     0.6132    -1.8360 C.2    1 <0>       0.1700
9 N9        1.8466     0.5245    -1.9687 N.2    1 <0>      -0.3800
10 O10       2.1287    -0.1205    -2.9564 O.3    1 <0>       0.0900
11 C11       1.0048    -0.5202    -3.5718 C.2    1 <0>       0.2400
12 C12       0.9136    -1.3255    -4.8061 C.ar   1 <0>      -0.0800
13 C13      -0.3360    -1.6608    -5.3327 C.ar   1 <0>      -0.0200
14 C14      -0.4169    -2.4123    -6.4845 C.ar   1 <0>      -0.2200
15 C15       0.7424    -2.8370    -7.1220 C.ar   1 <0>       0.1700
16 O16       0.6584    -3.5778    -8.2567 O.3    1 <0>      -0.3000
17 C17      -0.6476    -3.9826    -8.6721 C.3    1 <0>       0.0800
18 C18      -1.2916    -2.8632    -9.4924 C.3    1 <0>      -0.1500
19 C19      -2.6899    -3.2966    -9.9372 C.3    1 <0>      -0.1200
20 C20      -2.5840    -4.5601   -10.7934 C.3    1 <0>      -0.1300
21 C21      -1.9399    -5.6796    -9.9731 C.3    1 <0>      -0.1200
22 C22      -0.5416    -5.2462    -9.5283 C.3    1 <0>      -0.1200
23 C23       1.9872    -2.5052    -6.6016 C.ar   1 <0>      -0.1600
24 C24       2.0767    -1.7491    -5.4535 C.ar   1 <0>      -0.0300
25 N25      -0.0045    -0.0567    -2.8548 N.2    1 <0>      -0.4700
26 H26       0.9388     3.1584    -0.9820 H      1 <0>       0.0600
27 H27      -0.5645     3.0808    -1.9318 H      1 <0>       0.0700
28 H28      -0.6348     3.3626    -0.1757 H      1 <0>       0.0800
29 H29       1.3711     0.7389     0.5919 H      1 <0>       0.4000
30 H30       1.2172     0.5284     2.9117 H      1 <0>       0.4000
31 H31      -0.2332     0.8623     3.6911 H      1 <0>       0.4200
32 H32      -1.2375    -1.3317    -4.8374 H      1 <0>       0.1400
33 H33      -1.3826    -2.6720    -6.8923 H      1 <0>       0.1400
34 H34      -1.2604    -4.1887    -7.7945 H      1 <0>       0.0800
35 H35      -1.3671    -1.9630    -8.8824 H      1 <0>       0.0700
36 H36      -0.6788    -2.6571   -10.3700 H      1 <0>       0.0800
37 H37      -3.3027    -3.5027    -9.0596 H      1 <0>       0.0600
38 H38      -3.1488    -2.4991   -10.5216 H      1 <0>       0.0700
39 H39      -3.5802    -4.8689   -11.1103 H      1 <0>       0.0700
40 H40      -1.9712    -4.3541   -11.6710 H      1 <0>       0.0700
41 H41      -2.5527    -5.8856    -9.0955 H      1 <0>       0.0700
42 H42      -1.8644    -6.5797   -10.5831 H      1 <0>       0.0700
43 H43       0.0712    -5.0401   -10.4059 H      1 <0>       0.0800
44 H44      -0.0828    -6.0437    -8.9439 H      1 <0>       0.0700
45 H45       2.8860    -2.8369    -7.1003 H      1 <0>       0.1400
46 H46       3.0447    -1.4913    -5.0498 H      1 <0>       0.1400
@<TRIPOS>BOND
1    1    2 1
2    1   26 1
3    1   27 1
4    1   28 1
5    2    3 1
6    2    4 1
7    2    8 1
8    4    5 am
9    4   29 1
10    5    6 am
11    5    7 2
12    6   30 1
13    6   31 1
14    8   25 1
15    8    9 2
16    9   10 1
17   10   11 1
18   11   12 1
19   11   25 2
20   12   24 ar
21   12   13 ar
22   13   14 ar
23   13   32 1
24   14   15 ar
25   14   33 1
26   15   16 1
27   15   23 ar
28   16   17 1
29   17   22 1
30   17   18 1
31   17   34 1
32   18   19 1
33   18   35 1
34   18   36 1
35   19   20 1
36   19   37 1
37   19   38 1
38   20   21 1
39   20   39 1
40   20   40 1
41   21   22 1
42   21   41 1
43   21   42 1
44   22   43 1
45   22   44 1
46   23   24 ar
47   23   45 1
48   24   46 1
@<TRIPOS>MOLECULE
ZINC000179496896
53	55	1	0	0
SMALL
USER_CHARGES
@<TRIPOS>ATOM
1      C1      0.3488    4.1714   -1.0217 C.3      1 ZINC000179496896   -0.1500
2      C2      0.5850    2.7124   -0.6263 C.3      1 ZINC000179496896   -0.1100
3      C3      1.4740    2.6587    0.6178 C.3      1 ZINC000179496896   -0.1400
4      C4     -0.7567    2.0423   -0.3237 C.3      1 ZINC000179496896    0.1200
5      N5     -1.5617    1.9870   -1.5465 N.pl3    1 ZINC000179496896   -0.3300
6      N6     -2.4558    2.9714   -1.9821 N.2      1 ZINC000179496896   -0.2700
7      C7     -2.9936    2.5861   -3.1063 C.2      1 ZINC000179496896    0.0800
8      C8     -2.4561    1.3221   -3.4374 C.2      1 ZINC000179496896   -0.2500
9      C9     -2.7838    0.5163   -4.6277 C.2      1 ZINC000179496896    0.5900
10     O10    -2.2481   -0.5620   -4.7984 O.2      1 ZINC000179496896   -0.5300
11     N11    -3.6772    0.9747   -5.5268 N.am     1 ZINC000179496896   -0.7100
12     C12    -4.0028    0.1739   -6.7096 C.3      1 ZINC000179496896    0.1300
13     C13    -5.1270    0.8549   -7.4927 C.3      1 ZINC000179496896    0.0700
14     H14    -4.7707    1.8069   -7.8862 H        1 ZINC000179496896    0.0900
15     C15    -5.5598   -0.0459   -8.6512 C.3      1 ZINC000179496896   -0.1900
16     N16    -6.2711    1.0907   -6.6020 N.3      1 ZINC000179496896   -0.5300
17     C17    -6.8812   -0.1785   -6.1809 C.3      1 ZINC000179496896    0.0600
18     C18    -7.7848    0.0772   -4.9685 C.3      1 ZINC000179496896   -0.0400
19     C19    -8.6760    1.2589   -5.2879 C.2      1 ZINC000179496896   -0.1700
20     C20    -8.4535    2.1172   -6.3031 C.2      1 ZINC000179496896   -0.1100
21     C21    -9.4079    3.1231   -6.4023 C.2      1 ZINC000179496896   -0.1200
22     C22   -10.3792    3.0870   -5.4943 C.2      1 ZINC000179496896   -0.2200
23     S23   -10.1298    1.7199   -4.4177 S.3      1 ZINC000179496896    0.1000
24     C24    -7.2593    1.9732   -7.2367 C.3      1 ZINC000179496896    0.1200
25     C25    -1.5616    0.9859   -2.4411 C.2      1 ZINC000179496896    0.0700
26     C26    -0.7433   -0.2773   -2.3662 C.3      1 ZINC000179496896    0.3400
27     F27    -0.4681   -0.7322   -3.6602 F        1 ZINC000179496896   -0.1500
28     F28     0.4580   -0.0158   -1.6985 F        1 ZINC000179496896   -0.2000
29     H29     1.3047    4.6488   -1.2372 H        1 ZINC000179496896    0.0600
30     H30    -0.2845    4.2096   -1.9080 H        1 ZINC000179496896    0.0600
31     H31    -0.1421    4.6952   -0.2015 H        1 ZINC000179496896    0.0600
32     H32     1.0760    2.1886   -1.4465 H        1 ZINC000179496896    0.0800
33     H33     0.9830    3.1824    1.4380 H        1 ZINC000179496896    0.0600
34     H34     1.6423    1.6192    0.8995 H        1 ZINC000179496896    0.0600
35     H35     2.4299    3.1360    0.4023 H        1 ZINC000179496896    0.0700
36     H36    -0.5831    1.0306    0.0430 H        1 ZINC000179496896    0.1000
37     H37    -1.2873    2.6177    0.4349 H        1 ZINC000179496896    0.1000
38     H38    -3.7223    3.1366   -3.6828 H        1 ZINC000179496896    0.2000
39     H39    -4.1045    1.8348   -5.3907 H        1 ZINC000179496896    0.4100
40     H40    -3.1202    0.0861   -7.3431 H        1 ZINC000179496896    0.0700
41     H41    -4.3268   -0.8191   -6.3981 H        1 ZINC000179496896    0.0700
42     H42    -6.3607    0.4392   -9.2091 H        1 ZINC000179496896    0.0600
43     H43    -4.7108   -0.2209   -9.3121 H        1 ZINC000179496896    0.0700
44     H44    -5.9161   -0.9979   -8.2577 H        1 ZINC000179496896    0.0600
45     H45    -7.4754   -0.5863   -6.9987 H        1 ZINC000179496896    0.0400
46     H46    -6.0985   -0.8867   -5.9092 H        1 ZINC000179496896    0.0900
47     H47    -8.3968   -0.8033   -4.7732 H        1 ZINC000179496896    0.0800
48     H48    -7.1734    0.3027   -4.0948 H        1 ZINC000179496896    0.0900
49     H49    -9.3634    3.8846   -7.1668 H        1 ZINC000179496896    0.1400
50     H50   -11.1964    3.7901   -5.4286 H        1 ZINC000179496896    0.1600
51     H51    -6.8143    2.9521   -7.4152 H        1 ZINC000179496896    0.0900
52     H52    -7.5843    1.5384   -8.1819 H        1 ZINC000179496896    0.0500
53     H53    -1.3016   -1.0404   -1.8239 H        1 ZINC000179496896    0.1300
@<TRIPOS>BOND
1     1     2     1
2     1     29    1
3     1     30    1
4     1     31    1
5     2     3     1
6     2     4     1
7     2     32    1
8     3     33    1
9     3     34    1
10    3     35    1
11    4     5     1
12    4     36    1
13    4     37    1
14    5     25    1
15    5     6     1
16    6     7     2
17    7     8     1
18    7     38    1
19    8     9     1
20    8     25    2
21    9     10    2
22    9     11    am
23    11    12    1
24    11    39    1
25    12    13    1
26    12    40    1
27    12    41    1
28    13    14    1
29    13    15    1
30    13    16    1
31    15    42    1
32    15    43    1
33    15    44    1
34    16    24    1
35    16    17    1
36    17    18    1
37    17    45    1
38    17    46    1
39    18    19    1
40    18    47    1
41    18    48    1
42    19    23    1
43    19    20    2
44    20    21    1
45    20    24    1
46    21    22    2
47    21    49    1
48    22    23    1
49    22    50    1
50    24    51    1
51    24    52    1
52    25    26    1
53    26    27    1
54    26    28    1
55    26    53    1
@<TRIPOS>SUBSTRUCTURE
1   ZINC000179496896 1     RESIDUE    1   A     ZIN   1
@<TRIPOS>MOLECULE
ZINC000562561773
47	50	1	0	0
SMALL
USER_CHARGES
@<TRIPOS>ATOM
1      C1     -0.0184    1.5028    0.0103 C.3      1 ZINC000562561773   -0.1100
2      C2      0.0021   -0.0041    0.0020 C.ar     1 ZINC000562561773   -0.0400
3      C3      0.0057   -0.6866   -1.1993 C.ar     1 ZINC000562561773   -0.1200
4      C4      0.0244   -2.0673   -1.2137 C.ar     1 ZINC000562561773   -0.0700
5      C5      0.0397   -2.7770   -0.0147 C.ar     1 ZINC000562561773   -0.0300
6      C6      0.0603   -4.2611   -0.0288 C.2      1 ZINC000562561773    0.2200
7      N7      0.0702   -5.0472    1.0160 N.2      1 ZINC000562561773   -0.3700
8      O8      0.0866   -6.2078    0.6643 O.3      1 ZINC000562561773    0.0900
9      C9      0.0889   -6.2817   -0.6704 C.2      1 ZINC000562561773    0.1900
10     C10     0.1064   -7.5415   -1.4971 C.3      1 ZINC000562561773   -0.0100
11     C11     1.5546   -7.9484   -1.7761 C.3      1 ZINC000562561773   -0.1200
12     S12     1.5756   -9.4616   -2.7691 S.3      1 ZINC000562561773    0.0600
13     C13     3.3142   -9.6940   -2.9359 C.2      1 ZINC000562561773    0.2100
14     N14     4.2571   -8.9266   -2.4334 N.2      1 ZINC000562561773   -0.3300
15     N15     5.4182   -9.3798   -2.7426 N.2      1 ZINC000562561773   -0.0300
16     N16     5.3070  -10.4502   -3.4523 N.2      1 ZINC000562561773   -0.0700
17     N17     3.9314  -10.6993   -3.6006 N.pl3    1 ZINC000562561773   -0.3600
18     C18     3.3007  -11.8045   -4.3264 C.3      1 ZINC000562561773    0.0800
19     N19     0.0663   -5.0534   -1.1246 N.2      1 ZINC000562561773   -0.4600
20     C20     0.0361   -2.0906    1.1966 C.ar     1 ZINC000562561773   -0.1100
21     C21     0.0230   -0.7037    1.2029 C.ar     1 ZINC000562561773    0.0800
22     N22     0.0198   -0.0104    2.4157 N.3      1 ZINC000562561773   -0.4800
23     C23    -1.1424   -0.4059    3.2518 C.3      1 ZINC000562561773    0.0400
24     C24    -0.7125    0.0167    4.6791 C.3      1 ZINC000562561773   -0.1200
25     C25     0.7985   -0.3096    4.6959 C.3      1 ZINC000562561773   -0.1300
26     C26     1.2209   -0.3354    3.2152 C.3      1 ZINC000562561773    0.0400
27     H27     1.0042    1.8801    0.0026 H        1 ZINC000562561773    0.0700
28     H28    -0.5455    1.8639   -0.8728 H        1 ZINC000562561773    0.0600
29     H29    -0.5286    1.8543    0.9071 H        1 ZINC000562561773    0.0800
30     H30    -0.0065   -0.1385   -2.1299 H        1 ZINC000562561773    0.1400
31     H31     0.0268   -2.5972   -2.1548 H        1 ZINC000562561773    0.1400
32     H32    -0.3971   -8.3404   -0.9527 H        1 ZINC000562561773    0.1200
33     H33    -0.4094   -7.3640   -2.4408 H        1 ZINC000562561773    0.1300
34     H34     2.0581   -7.1496   -2.3205 H        1 ZINC000562561773    0.1100
35     H35     2.0704   -8.1260   -0.8324 H        1 ZINC000562561773    0.1100
36     H36     3.1553  -12.6471   -3.6504 H        1 ZINC000562561773    0.1000
37     H37     2.3355  -11.4800   -4.7153 H        1 ZINC000562561773    0.1000
38     H38     3.9420  -12.1088   -5.1536 H        1 ZINC000562561773    0.1100
39     H39     0.0476   -2.6364    2.1284 H        1 ZINC000562561773    0.1300
40     H40    -2.0386    0.1331    2.9445 H        1 ZINC000562561773    0.0900
41     H41    -1.3037   -1.4828    3.2017 H        1 ZINC000562561773    0.0500
42     H42    -0.8785    1.0831    4.8320 H        1 ZINC000562561773    0.0800
43     H43    -1.2420   -0.5688    5.4307 H        1 ZINC000562561773    0.0700
44     H44     1.3469    0.4648    5.2323 H        1 ZINC000562561773    0.0800
45     H45     0.9702   -1.2831    5.1553 H        1 ZINC000562561773    0.0700
46     H46     1.5858   -1.3278    2.9504 H        1 ZINC000562561773    0.0500
47     H47     1.9976    0.4084    3.0376 H        1 ZINC000562561773    0.0800
@<TRIPOS>BOND
1     1     2     1
2     1     27    1
3     1     28    1
4     1     29    1
5     2     21    ar
6     2     3     ar
7     3     4     ar
8     3     30    1
9     4     5     ar
10    4     31    1
11    5     6     1
12    5     20    ar
13    6     19    1
14    6     7     2
15    7     8     1
16    8     9     1
17    9     10    1
18    9     19    2
19    10    11    1
20    10    32    1
21    10    33    1
22    11    12    1
23    11    34    1
24    11    35    1
25    12    13    1
26    13    17    1
27    13    14    2
28    14    15    1
29    15    16    2
30    16    17    1
31    17    18    1
32    18    36    1
33    18    37    1
34    18    38    1
35    20    21    ar
36    20    39    1
37    21    22    1
38    22    26    1
39    22    23    1
40    23    24    1
41    23    40    1
42    23    41    1
43    24    25    1
44    24    42    1
45    24    43    1
46    25    26    1
47    25    44    1
48    25    45    1
49    26    46    1
50    26    47    1
@<TRIPOS>SUBSTRUCTURE
1   ZINC000562561773 1     RESIDUE    1   A     ZIN   1
@<TRIPOS>MOLECULE
ZINC000675319328
56	58	1	0	0
SMALL
USER_CHARGES
@<TRIPOS>ATOM
1      C1      1.5575   -0.9737   -1.9536 C.3      1 ZINC000675319328   -0.1600
2      C2      2.0355    0.2179   -1.1216 C.3      1 ZINC000675319328    0.1600
3      H3      1.1764    0.8136   -0.8130 H        1 ZINC000675319328    0.0900
4      C4      2.9791    1.0809   -1.9617 C.3      1 ZINC000675319328   -0.1200
5      C5      3.3585    2.3367   -1.1744 C.3      1 ZINC000675319328   -0.1200
6      H6      3.7679    2.0723   -0.1994 H        1 ZINC000675319328    0.0800
7      C7      4.3615    3.2099   -1.9766 C.3      1 ZINC000675319328   -0.1500
8      C8      4.0383    4.6182   -1.4171 C.3      1 ZINC000675319328    0.0500
9      O9      2.6172    4.6216   -1.2078 O.3      1 ZINC000675319328   -0.3900
10     C10     2.1445    3.2783   -1.0236 C.3      1 ZINC000675319328    0.0500
11     N11     2.7444   -0.2679    0.0649 N.am     1 ZINC000675319328   -0.7400
12     C12     2.0538   -0.5998    1.1737 C.2      1 ZINC000675319328    0.7000
13     O13     0.8536   -0.4113    1.2215 O.2      1 ZINC000675319328   -0.5900
14     N14     2.6936   -1.1407    2.2294 N.am     1 ZINC000675319328   -0.6200
15     C15     1.8957   -1.6067    3.3805 C.3      1 ZINC000675319328    0.1300
16     C16     2.4186   -2.9504    3.9156 C.3      1 ZINC000675319328   -0.1300
17     C17     2.8066   -3.8423    2.7569 C.3      1 ZINC000675319328    0.0700
18     N18     4.2261   -3.6537    2.4625 N.3      1 ZINC000675319328   -0.5500
19     C19     4.8469   -4.9141    2.0337 C.3      1 ZINC000675319328    0.1000
20     C20     6.3431   -4.7433    1.9766 C.ar     1 ZINC000675319328   -0.0900
21     C21     6.9449   -4.3117    0.8092 C.ar     1 ZINC000675319328   -0.0900
22     C22     8.3169   -4.1547    0.7557 C.ar     1 ZINC000675319328   -0.1500
23     C23     9.0887   -4.4293    1.8719 C.ar     1 ZINC000675319328    0.1000
24     F24    10.4300   -4.2757    1.8208 F        1 ZINC000675319328   -0.1400
25     C25     8.4848   -4.8610    3.0407 C.ar     1 ZINC000675319328   -0.1500
26     C26     7.1121   -5.0127    3.0933 C.ar     1 ZINC000675319328   -0.0700
27     C27     4.5484   -2.6017    1.5735 C.3      1 ZINC000675319328    0.0500
28     C28     4.1379   -1.2480    2.1887 C.3      1 ZINC000675319328    0.1100
29     H29     0.8852   -1.5885   -1.3551 H        1 ZINC000675319328    0.0600
30     H30     1.0301   -0.6123   -2.8364 H        1 ZINC000675319328    0.0700
31     H31     2.4166   -1.5694   -2.2622 H        1 ZINC000675319328    0.0500
32     H32     3.8795    0.5128   -2.1956 H        1 ZINC000675319328    0.0700
33     H33     2.4806    1.3690   -2.8872 H        1 ZINC000675319328    0.0900
34     H34     5.3911    2.9271   -1.7578 H        1 ZINC000675319328    0.0800
35     H35     4.1604    3.1567   -3.0466 H        1 ZINC000675319328    0.0800
36     H36     4.5600    4.7794   -0.4738 H        1 ZINC000675319328    0.0600
37     H37     4.3161    5.3854   -2.1399 H        1 ZINC000675319328    0.0900
38     H38     1.3993    3.0412   -1.7830 H        1 ZINC000675319328    0.0700
39     H39     1.7084    3.1727   -0.0302 H        1 ZINC000675319328    0.0700
40     H40     3.7107   -0.3507    0.0525 H        1 ZINC000675319328    0.3900
41     H41     1.9467   -0.8621    4.1749 H        1 ZINC000675319328    0.0600
42     H42     0.8575   -1.7257    3.0704 H        1 ZINC000675319328    0.0900
43     H43     3.2901   -2.7754    4.5464 H        1 ZINC000675319328    0.0800
44     H44     1.6385   -3.4359    4.5018 H        1 ZINC000675319328    0.0800
45     H45     2.6246   -4.8838    3.0219 H        1 ZINC000675319328    0.0700
46     H46     2.2145   -3.5793    1.8804 H        1 ZINC000675319328    0.0400
47     H47     4.5980   -5.7020    2.7446 H        1 ZINC000675319328    0.0900
48     H48     4.4742   -5.1851    1.0459 H        1 ZINC000675319328    0.0400
49     H49     6.3427   -4.0975   -0.0613 H        1 ZINC000675319328    0.1300
50     H50     8.7869   -3.8182   -0.1566 H        1 ZINC000675319328    0.1400
51     H51     9.0858   -5.0759    3.9119 H        1 ZINC000675319328    0.1400
52     H52     6.6408   -5.3491    4.0049 H        1 ZINC000675319328    0.1300
53     H53     5.6219   -2.6039    1.3845 H        1 ZINC000675319328    0.0900
54     H54     4.0167   -2.7470    0.6332 H        1 ZINC000675319328    0.0300
55     H55     4.5427   -0.4369    1.5834 H        1 ZINC000675319328    0.0700
56     H56     4.5327   -1.1754    3.2020 H        1 ZINC000675319328    0.0900
@<TRIPOS>BOND
1     1     2     1
2     1     29    1
3     1     30    1
4     1     31    1
5     2     3     1
6     2     4     1
7     2     11    1
8     4     5     1
9     4     32    1
10    4     33    1
11    5     6     1
12    5     10    1
13    5     7     1
14    7     8     1
15    7     34    1
16    7     35    1
17    8     9     1
18    8     36    1
19    8     37    1
20    9     10    1
21    10    38    1
22    10    39    1
23    11    12    am
24    11    40    1
25    12    13    2
26    12    14    am
27    14    28    1
28    14    15    1
29    15    16    1
30    15    41    1
31    15    42    1
32    16    17    1
33    16    43    1
34    16    44    1
35    17    18    1
36    17    45    1
37    17    46    1
38    18    19    1
39    18    27    1
40    19    20    1
41    19    47    1
42    19    48    1
43    20    26    ar
44    20    21    ar
45    21    22    ar
46    21    49    1
47    22    23    ar
48    22    50    1
49    23    24    1
50    23    25    ar
51    25    26    ar
52    25    51    1
53    26    52    1
54    27    28    1
55    27    53    1
56    27    54    1
57    28    55    1
58    28    56    1
@<TRIPOS>SUBSTRUCTURE
1   ZINC000675319328 1     RESIDUE    1   A     ZIN   1
@<TRIPOS>MOLECULE
ZINC001342153661
62	65	1	0	0
SMALL
USER_CHARGES
@<TRIPOS>ATOM
1      C1     -3.1074   -2.9283    0.9968 C.2      1 ZINC001342153661   -0.1400
2      C2     -3.1362   -1.6861    0.5817 C.2      1 ZINC001342153661   -0.1600
3      C3     -4.4099   -0.8871    0.6832 C.3      1 ZINC001342153661   -0.1200
4      C4     -1.8957   -1.0563    0.0025 C.3      1 ZINC001342153661    0.1500
5      N5     -1.9308   -1.1618   -1.4582 N.pl3    1 ZINC001342153661   -0.4700
6      C6     -2.3744   -0.2188   -2.3436 C.2      1 ZINC001342153661    0.1800
7      C7     -2.9258    1.1406   -1.9988 C.3      1 ZINC001342153661   -0.0600
8      C8     -1.7728    2.1342   -1.8430 C.3      1 ZINC001342153661    0.1600
9      H9     -1.0625    1.7542   -1.1087 H        1 ZINC001342153661    0.1000
10     O10    -1.1145    2.3009   -3.1004 O.3      1 ZINC001342153661   -0.5400
11     C11    -2.3132    3.4622   -1.3789 C.ar     1 ZINC001342153661   -0.1700
12     C12    -2.2298    3.8260   -0.0439 C.ar     1 ZINC001342153661   -0.0600
13     C13    -2.7399    5.0578    0.3376 C.ar     1 ZINC001342153661   -0.1700
14     C14    -3.3104    5.8758   -0.6189 C.ar     1 ZINC001342153661    0.1000
15     N15    -3.3725    5.4968   -1.8806 N.ar     1 ZINC001342153661   -0.4800
16     C16    -2.8931    4.3353   -2.2800 C.ar     1 ZINC001342153661    0.1100
17     N17    -2.2312   -0.7133   -3.5405 N.2      1 ZINC001342153661   -0.2700
18     N18    -1.7312   -1.8953   -3.4722 N.2      1 ZINC001342153661   -0.3200
19     C19    -1.5222   -2.2191   -2.2179 C.2      1 ZINC001342153661    0.3600
20     N20    -0.9942   -3.4127   -1.7521 N.3      1 ZINC001342153661   -0.4500
21     C21     0.3286   -3.2035   -1.1497 C.3      1 ZINC001342153661    0.0500
22     C22     0.8157   -4.5100   -0.5189 C.3      1 ZINC001342153661   -0.1200
23     C23     0.8910   -5.5947   -1.5970 C.3      1 ZINC001342153661   -0.1200
24     C24    -0.4881   -5.7589   -2.2418 C.3      1 ZINC001342153661   -0.0800
25     H25    -1.2048   -6.0880   -1.4894 H        1 ZINC001342153661    0.0800
26     C26    -0.4081   -6.7994   -3.3607 C.3      1 ZINC001342153661   -0.0800
27     C27    -0.0783   -8.1965   -2.7791 C.3      1 ZINC001342153661   -0.1200
28     C28    -0.6240   -9.1565   -3.8653 C.3      1 ZINC001342153661   -0.1300
29     C29    -1.9247   -8.4816   -4.3477 C.3      1 ZINC001342153661   -0.1300
30     C30    -1.7874   -6.9829   -4.0268 C.3      1 ZINC001342153661   -0.1200
31     C31    -0.9374   -4.4162   -2.8227 C.3      1 ZINC001342153661    0.0800
32     H32    -3.9964   -3.3797    1.4119 H        1 ZINC001342153661    0.1000
33     H33    -2.1958   -3.5023    0.9200 H        1 ZINC001342153661    0.1100
34     H34    -4.4819   -0.4427    1.6758 H        1 ZINC001342153661    0.0700
35     H35    -4.4047   -0.0980   -0.0687 H        1 ZINC001342153661    0.0600
36     H36    -5.2645   -1.5427    0.5158 H        1 ZINC001342153661    0.0700
37     H37    -1.8535   -0.0057    0.2900 H        1 ZINC001342153661    0.1000
38     H38    -1.0145   -1.5727    0.3830 H        1 ZINC001342153661    0.1000
39     H39    -3.5895    1.4763   -2.7957 H        1 ZINC001342153661    0.1100
40     H40    -3.4825    1.0805   -1.0636 H        1 ZINC001342153661    0.1000
41     H41    -1.6877    2.6370   -3.8029 H        1 ZINC001342153661    0.3800
42     H42    -1.7786    3.1657    0.6820 H        1 ZINC001342153661    0.1300
43     H43    -2.6923    5.3736    1.3693 H        1 ZINC001342153661    0.1400
44     H44    -3.7102    6.8365   -0.3298 H        1 ZINC001342153661    0.1600
45     H45    -2.9621    4.0592   -3.3219 H        1 ZINC001342153661    0.1500
46     H46     1.0325   -2.8875   -1.9197 H        1 ZINC001342153661    0.0500
47     H47     0.2602   -2.4328   -0.3819 H        1 ZINC001342153661    0.0700
48     H48     1.8043   -4.3584   -0.0855 H        1 ZINC001342153661    0.0800
49     H49     0.1195   -4.8194    0.2607 H        1 ZINC001342153661    0.0700
50     H50     1.6160   -5.3033   -2.3569 H        1 ZINC001342153661    0.0600
51     H51     1.1959   -6.5380   -1.1439 H        1 ZINC001342153661    0.0700
52     H52     0.3368   -6.5063   -4.1004 H        1 ZINC001342153661    0.0800
53     H53     0.9980   -8.3208   -2.6593 H        1 ZINC001342153661    0.0700
54     H54    -0.5941   -8.3522   -1.8316 H        1 ZINC001342153661    0.0700
55     H55     0.0866   -9.2463   -4.6870 H        1 ZINC001342153661    0.0600
56     H56    -0.8385  -10.1353   -3.4365 H        1 ZINC001342153661    0.0600
57     H57    -2.0431   -8.6241   -5.4218 H        1 ZINC001342153661    0.0600
58     H58    -2.7808   -8.8999   -3.8184 H        1 ZINC001342153661    0.0600
59     H59    -2.5770   -6.6739   -3.3418 H        1 ZINC001342153661    0.0600
60     H60    -1.8393   -6.3982   -4.9452 H        1 ZINC001342153661    0.0600
61     H61    -1.9252   -4.5264   -3.2700 H        1 ZINC001342153661    0.0900
62     H62    -0.2276   -4.0945   -3.5848 H        1 ZINC001342153661    0.0500
@<TRIPOS>BOND
1     1     2     2
2     1     32    1
3     1     33    1
4     2     3     1
5     2     4     1
6     3     34    1
7     3     35    1
8     3     36    1
9     4     5     1
10    4     37    1
11    4     38    1
12    5     19    1
13    5     6     1
14    6     7     1
15    6     17    2
16    7     8     1
17    7     39    1
18    7     40    1
19    8     9     1
20    8     10    1
21    8     11    1
22    10    41    1
23    11    16    ar
24    11    12    ar
25    12    13    ar
26    12    42    1
27    13    14    ar
28    13    43    1
29    14    15    ar
30    14    44    1
31    15    16    ar
32    16    45    1
33    17    18    1
34    18    19    2
35    19    20    1
36    20    31    1
37    20    21    1
38    21    22    1
39    21    46    1
40    21    47    1
41    22    23    1
42    22    48    1
43    22    49    1
44    23    24    1
45    23    50    1
46    23    51    1
47    24    25    1
48    24    26    1
49    24    31    1
50    26    30    1
51    26    27    1
52    26    52    1
53    27    28    1
54    27    53    1
55    27    54    1
56    28    29    1
57    28    55    1
58    28    56    1
59    29    30    1
60    29    57    1
61    29    58    1
62    30    59    1
63    30    60    1
64    31    61    1
65    31    62    1
@<TRIPOS>SUBSTRUCTURE
1   ZINC001342153661 1     RESIDUE    1   A     ZIN   1
@<TRIPOS>MOLECULE
ZINC000279452407
45	47	1	0	0
SMALL
USER_CHARGES
@<TRIPOS>ATOM
1      C1     -0.0034    1.5173   -0.0121 C.3      1 ZINC000279452407   -0.1600
2      C2      0.0216   -0.0125   -0.0174 C.3      1 ZINC000279452407    0.0600
3      H3      0.4502   -0.3733   -0.9524 H        1 ZINC000279452407    0.0700
4      O4     -1.3139   -0.5249    0.1393 O.3      1 ZINC000279452407   -0.3700
5      C5     -1.2111   -1.7431    0.9084 C.3      1 ZINC000279452407    0.0500
6      C6     -0.1331   -1.4110    1.9730 C.3      1 ZINC000279452407   -0.1400
7      C7      0.8493   -0.5262    1.1698 C.3      1 ZINC000279452407    0.0700
8      C8      1.3223    0.6415    2.0319 C.3      1 ZINC000279452407    0.1100
9      N9      2.3848    1.3569    1.3052 N.am     1 ZINC000279452407   -0.6300
10     C10     2.3473    2.6964    1.1606 C.2      1 ZINC000279452407    0.7200
11     O11     1.4822    3.3440    1.7177 O.2      1 ZINC000279452407   -0.5800
12     N12     3.2689    3.3180    0.3985 N.am     1 ZINC000279452407   -0.7500
13     C13     3.2980    4.7811    0.3318 C.3      1 ZINC000279452407    0.2000
14     C14     4.4135    5.2202   -0.5815 C.2      1 ZINC000279452407   -0.1700
15     C15     4.2970    5.4244   -1.8945 C.2      1 ZINC000279452407   -0.1400
16     C16     5.4604    5.8262   -2.5278 C.2      1 ZINC000279452407    0.0100
17     C17     6.5217    5.9483   -1.7291 C.2      1 ZINC000279452407   -0.7900
18     S18     8.1318    6.4418   -2.2477 S.o2     1 ZINC000279452407    2.7300
19     N19     8.2029    8.0915   -2.1225 N.am     1 ZINC000279452407   -1.2500
20     O20     9.0394    5.9267   -1.2832 O.2      1 ZINC000279452407   -0.9600
21     O21     8.2168    6.1405   -3.6337 O.2      1 ZINC000279452407   -0.9500
22     S22     6.0662    5.5492   -0.0778 S.3      1 ZINC000279452407    0.2500
23     C23     3.4890    0.5635    0.7422 C.3      1 ZINC000279452407    0.0700
24     C24     2.8924   -0.5819   -0.0836 C.3      1 ZINC000279452407    0.0400
25     O25     1.9530   -1.3022    0.7198 O.3      1 ZINC000279452407   -0.3600
26     H26     0.9964    1.8977   -0.2213 H        1 ZINC000279452407    0.0700
27     H27    -0.6945    1.8721   -0.7766 H        1 ZINC000279452407    0.0600
28     H28    -0.3298    1.8719    0.9656 H        1 ZINC000279452407    0.0800
29     H29    -2.1627   -1.9767    1.3859 H        1 ZINC000279452407    0.1000
30     H30    -0.8847   -2.5692    0.2767 H        1 ZINC000279452407    0.0700
31     H31    -0.5662   -0.8574    2.8062 H        1 ZINC000279452407    0.1000
32     H32     0.3597   -2.3176    2.3240 H        1 ZINC000279452407    0.1000
33     H33     0.4890    1.3179    2.2217 H        1 ZINC000279452407    0.1200
34     H34     1.7145    0.2643    2.9763 H        1 ZINC000279452407    0.0800
35     H35     3.9128    2.7965   -0.1059 H        1 ZINC000279452407    0.4000
36     H36     2.3467    5.1463   -0.0551 H        1 ZINC000279452407    0.1000
37     H37     3.4643    5.1871    1.3296 H        1 ZINC000279452407    0.0900
38     H38     3.3656    5.2863   -2.4235 H        1 ZINC000279452407    0.1600
39     H39     5.5055    6.0253   -3.5884 H        1 ZINC000279452407    0.1600
40     H40     7.4313    8.5877   -1.8074 H        1 ZINC000279452407    0.4200
41     H41     9.0162    8.5616   -2.3644 H        1 ZINC000279452407    0.4200
42     H42     4.1044    1.1951    0.1016 H        1 ZINC000279452407    0.0900
43     H43     4.0957    0.1550    1.5504 H        1 ZINC000279452407    0.0900
44     H44     2.3860   -0.1744   -0.9586 H        1 ZINC000279452407    0.0600
45     H45     3.6890   -1.2538   -0.4030 H        1 ZINC000279452407    0.1100
@<TRIPOS>BOND
1     1     2     1
2     1     26    1
3     1     27    1
4     1     28    1
5     2     3     1
6     2     7     1
7     2     4     1
8     4     5     1
9     5     6     1
10    5     29    1
11    5     30    1
12    6     7     1
13    6     31    1
14    6     32    1
15    7     25    1
16    7     8     1
17    8     9     1
18    8     33    1
19    8     34    1
20    9     10    am
21    9     23    1
22    10    11    2
23    10    12    am
24    12    13    1
25    12    35    1
26    13    14    1
27    13    36    1
28    13    37    1
29    14    22    1
30    14    15    2
31    15    16    1
32    15    38    1
33    16    17    2
34    16    39    1
35    17    18    1
36    17    22    1
37    18    19    am
38    18    20    2
39    18    21    2
40    19    40    1
41    19    41    1
42    23    24    1
43    23    42    1
44    23    43    1
45    24    25    1
46    24    44    1
47    24    45    1
@<TRIPOS>SUBSTRUCTURE
1   ZINC000279452407 1     RESIDUE    1   A     ZIN   1
@<TRIPOS>MOLECULE
ZINC000650298158
57	59	1	0	0
SMALL
USER_CHARGES
@<TRIPOS>ATOM
1      C1      0.3548    1.3498    0.8540 C.3      1 ZINC000650298158    0.1000
2      N2      0.4926   -0.0717    0.5274 N.am     1 ZINC000650298158   -0.6400
3      C3      1.0414   -1.0010    1.5180 C.3      1 ZINC000650298158    0.0700
4      C4      0.1145   -0.5244   -0.6844 C.2      1 ZINC000650298158    0.7100
5      O5     -0.1191    0.2623   -1.5816 O.2      1 ZINC000650298158   -0.5800
6      N6     -0.0047   -1.8492   -0.9018 N.am     1 ZINC000650298158   -0.6300
7      C7     -0.1216   -2.7851    0.2248 C.3      1 ZINC000650298158    0.0800
8      C8     -1.3707   -3.6482    0.0213 C.3      1 ZINC000650298158   -0.1100
9      C9     -1.3022   -4.3220   -1.3511 C.3      1 ZINC000650298158   -0.1000
10     C10    -2.5131   -5.1988   -1.5409 C.2      1 ZINC000650298158    0.5400
11     O11    -3.4022   -5.1918   -0.7161 O.2      1 ZINC000650298158   -0.5300
12     N12    -2.6080   -5.9908   -2.6273 N.am     1 ZINC000650298158   -0.6100
13     C13    -1.5644   -6.1713   -3.6528 C.3      1 ZINC000650298158    0.0900
14     C14    -2.3294   -6.6222   -4.9221 C.3      1 ZINC000650298158   -0.1300
15     C15    -3.4342   -7.5269   -4.3150 C.3      1 ZINC000650298158   -0.1300
16     C16    -3.7670   -6.8226   -2.9827 C.3      1 ZINC000650298158    0.1700
17     C17    -5.0014   -5.9357   -3.1571 C.3      1 ZINC000650298158   -0.1600
18     C18    -4.0218   -7.8654   -1.8924 C.3      1 ZINC000650298158   -0.0900
19     C19    -5.2031   -8.7177   -2.2787 C.ar     1 ZINC000650298158   -0.0600
20     C20    -6.4788   -8.3421   -1.9020 C.ar     1 ZINC000650298158   -0.1100
21     C21    -7.5631   -9.1233   -2.2564 C.ar     1 ZINC000650298158   -0.1000
22     C22    -7.3719  -10.2805   -2.9872 C.ar     1 ZINC000650298158   -0.1100
23     C23    -6.0950  -10.6571   -3.3647 C.ar     1 ZINC000650298158   -0.0300
24     Cl24   -5.8540  -12.1103   -4.2832 Cl       1 ZINC000650298158   -0.0700
25     C25    -5.0111   -9.8721   -3.0146 C.ar     1 ZINC000650298158   -0.1100
26     C26    -1.2705   -3.2526   -2.4454 C.3      1 ZINC000650298158   -0.1300
27     C27    -0.0263   -2.3844   -2.2699 C.3      1 ZINC000650298158    0.1300
28     H28     1.2670    1.8769    0.5745 H        1 ZINC000650298158    0.0500
29     H29    -0.4892    1.7684    0.3058 H        1 ZINC000650298158    0.0700
30     H30     0.1841    1.4617    1.9247 H        1 ZINC000650298158    0.0700
31     H31     0.2417   -1.3495    2.1715 H        1 ZINC000650298158    0.0600
32     H32     1.4905   -1.8529    1.0074 H        1 ZINC000650298158    0.0800
33     H33     1.8004   -0.4921    2.1122 H        1 ZINC000650298158    0.0700
34     H34     0.7613   -3.4232    0.2628 H        1 ZINC000650298158    0.0700
35     H35    -0.2114   -2.2262    1.1563 H        1 ZINC000650298158    0.1100
36     H36    -1.4169   -4.4105    0.7990 H        1 ZINC000650298158    0.0800
37     H37    -2.2597   -3.0197    0.0740 H        1 ZINC000650298158    0.0800
38     H38    -0.4000   -4.9306   -1.4122 H        1 ZINC000650298158    0.1000
39     H39    -1.0462   -5.2301   -3.8365 H        1 ZINC000650298158    0.0900
40     H40    -0.8570   -6.9405   -3.3429 H        1 ZINC000650298158    0.0700
41     H41    -2.7650   -5.7677   -5.4400 H        1 ZINC000650298158    0.0800
42     H42    -1.6806   -7.1913   -5.5879 H        1 ZINC000650298158    0.0900
43     H43    -4.3078   -7.5583   -4.9660 H        1 ZINC000650298158    0.0800
44     H44    -3.0524   -8.5312   -4.1313 H        1 ZINC000650298158    0.0800
45     H45    -5.8556   -6.5526   -3.4362 H        1 ZINC000650298158    0.0700
46     H46    -5.2151   -5.4220   -2.2198 H        1 ZINC000650298158    0.0700
47     H47    -4.8130   -5.2006   -3.9396 H        1 ZINC000650298158    0.0600
48     H48    -3.1400   -8.4961   -1.7797 H        1 ZINC000650298158    0.0700
49     H49    -4.2307   -7.3610   -0.9490 H        1 ZINC000650298158    0.0900
50     H50    -6.6286   -7.4382   -1.3303 H        1 ZINC000650298158    0.1300
51     H51    -8.5597   -8.8293   -1.9618 H        1 ZINC000650298158    0.1300
52     H52    -8.2188  -10.8911   -3.2634 H        1 ZINC000650298158    0.1300
53     H53    -4.0142  -10.1654   -3.3089 H        1 ZINC000650298158    0.1300
54     H54    -1.2453   -3.7333   -3.4233 H        1 ZINC000650298158    0.0900
55     H55    -2.1605   -2.6278   -2.3694 H        1 ZINC000650298158    0.0800
56     H56    -0.0508   -1.5621   -2.9850 H        1 ZINC000650298158    0.1000
57     H57     0.8664   -2.9878   -2.4341 H        1 ZINC000650298158    0.0700
@<TRIPOS>BOND
1     1     2     1
2     1     28    1
3     1     29    1
4     1     30    1
5     2     3     1
6     2     4     am
7     3     31    1
8     3     32    1
9     3     33    1
10    4     5     2
11    4     6     am
12    6     27    1
13    6     7     1
14    7     8     1
15    7     34    1
16    7     35    1
17    8     9     1
18    8     36    1
19    8     37    1
20    9     10    1
21    9     26    1
22    9     38    1
23    10    11    2
24    10    12    am
25    12    16    1
26    12    13    1
27    13    14    1
28    13    39    1
29    13    40    1
30    14    15    1
31    14    41    1
32    14    42    1
33    15    16    1
34    15    43    1
35    15    44    1
36    16    17    1
37    16    18    1
38    17    45    1
39    17    46    1
40    17    47    1
41    18    19    1
42    18    48    1
43    18    49    1
44    19    25    ar
45    19    20    ar
46    20    21    ar
47    20    50    1
48    21    22    ar
49    21    51    1
50    22    23    ar
51    22    52    1
52    23    24    1
53    23    25    ar
54    25    53    1
55    26    27    1
56    26    54    1
57    26    55    1
58    27    56    1
59    27    57    1
@<TRIPOS>SUBSTRUCTURE
1   ZINC000650298158 1     RESIDUE    1   A     ZIN   1
@<TRIPOS>MOLECULE
ZINC000174621331
47	48	1	0	0
SMALL
USER_CHARGES
@<TRIPOS>ATOM
1      C1     -0.0173    1.4248    0.0099 C.3      1 ZINC000174621331    0.0300
2      O2      0.0021   -0.0041    0.0020 O.3      1 ZINC000174621331   -0.3800
3      C3      0.6518   -0.5703   -1.1379 C.3      1 ZINC000174621331    0.0500
4      C4      0.6131   -2.0967   -1.0411 C.3      1 ZINC000174621331    0.2400
5      H5      1.0288   -2.5292   -1.9512 H        1 ZINC000174621331    0.1300
6      N6      1.4039   -2.5331    0.1124 N.am     1 ZINC000174621331   -0.7200
7      C7      2.7353   -2.7036   -0.0091 C.2      1 ZINC000174621331    0.5600
8      O8      3.2799   -2.4953   -1.0756 O.2      1 ZINC000174621331   -0.5300
9      C9      3.5334   -3.1440    1.1549 C.ar     1 ZINC000174621331   -0.1600
10     C10     2.9104   -3.3896    2.3793 C.ar     1 ZINC000174621331   -0.0200
11     C11     3.6610   -3.8008    3.4616 C.ar     1 ZINC000174621331   -0.1100
12     C12     2.9900   -4.0665    4.7845 C.3      1 ZINC000174621331   -0.1200
13     C13     5.0281   -3.9702    3.3348 C.ar     1 ZINC000174621331    0.0400
14     C14     5.8415   -4.4201    4.5210 C.3      1 ZINC000174621331   -0.1600
15     C15     5.6520   -3.7288    2.1234 C.ar     1 ZINC000174621331   -0.6800
16     S16     7.3938   -3.9482    1.9726 S.o2     1 ZINC000174621331    2.7000
17     N17     8.1160   -2.8241    2.9510 N.am     1 ZINC000174621331   -1.2500
18     O18     7.6884   -5.2190    2.5359 O.2      1 ZINC000174621331   -0.9500
19     O19     7.7288   -3.5931    0.6381 O.2      1 ZINC000174621331   -0.9600
20     C20     4.9126   -3.3215    1.0325 C.ar     1 ZINC000174621331    0.0400
21     C21    -0.8133   -2.5534   -0.8739 C.2      1 ZINC000174621331   -0.0200
22     C22    -1.6021   -3.0421   -1.8478 C.2      1 ZINC000174621331   -0.1900
23     C23    -2.8491   -3.3421   -1.2530 C.2      1 ZINC000174621331   -0.2100
24     C24    -2.7478   -3.0188    0.0488 C.2      1 ZINC000174621331    0.0000
25     C25    -3.8356   -3.1676    1.0811 C.3      1 ZINC000174621331   -0.0800
26     O26    -1.5106   -2.5471    0.2739 O.3      1 ZINC000174621331   -0.1600
27     H27     1.0053    1.8021    0.0021 H        1 ZINC000174621331    0.0400
28     H28    -0.5445    1.7859   -0.8732 H        1 ZINC000174621331    0.0400
29     H29    -0.5275    1.7763    0.9067 H        1 ZINC000174621331    0.0900
30     H30     0.1385   -0.2506   -2.0447 H        1 ZINC000174621331    0.0700
31     H31     1.6883   -0.2344   -1.1694 H        1 ZINC000174621331    0.0700
32     H32     0.9693   -2.6993    0.9635 H        1 ZINC000174621331    0.4100
33     H33     1.8432   -3.2577    2.4796 H        1 ZINC000174621331    0.1400
34     H34     2.6819   -5.1110    4.8324 H        1 ZINC000174621331    0.0800
35     H35     3.6881   -3.8561    5.5948 H        1 ZINC000174621331    0.0800
36     H36     2.1146   -3.4246    4.8833 H        1 ZINC000174621331    0.0700
37     H37     5.8909   -5.5089    4.5358 H        1 ZINC000174621331    0.1100
38     H38     6.8493   -4.0115    4.4465 H        1 ZINC000174621331    0.0700
39     H39     5.3725   -4.0652    5.4387 H        1 ZINC000174621331    0.0900
40     H40     7.5717   -2.2087    3.4666 H        1 ZINC000174621331    0.4200
41     H41     9.0833   -2.7811    3.0084 H        1 ZINC000174621331    0.4200
42     H42     5.4007   -3.1338    0.0875 H        1 ZINC000174621331    0.1600
43     H43    -1.3343   -3.1785   -2.8851 H        1 ZINC000174621331    0.1500
44     H44    -3.7167   -3.7518   -1.7488 H        1 ZINC000174621331    0.1500
45     H45    -3.7683   -4.1538    1.5403 H        1 ZINC000174621331    0.0800
46     H46    -3.7169   -2.4013    1.8470 H        1 ZINC000174621331    0.0800
47     H47    -4.8085   -3.0553    0.6025 H        1 ZINC000174621331    0.0900
@<TRIPOS>BOND
1     1     2     1
2     1     27    1
3     1     28    1
4     1     29    1
5     2     3     1
6     3     4     1
7     3     30    1
8     3     31    1
9     4     5     1
10    4     6     1
11    4     21    1
12    6     7     am
13    6     32    1
14    7     8     2
15    7     9     1
16    9     20    ar
17    9     10    ar
18    10    11    ar
19    10    33    1
20    11    12    1
21    11    13    ar
22    12    34    1
23    12    35    1
24    12    36    1
25    13    14    1
26    13    15    ar
27    14    37    1
28    14    38    1
29    14    39    1
30    15    16    1
31    15    20    ar
32    16    17    am
33    16    18    2
34    16    19    2
35    17    40    1
36    17    41    1
37    20    42    1
38    21    26    1
39    21    22    2
40    22    23    1
41    22    43    1
42    23    24    2
43    23    44    1
44    24    25    1
45    24    26    1
46    25    45    1
47    25    46    1
48    25    47    1
@<TRIPOS>SUBSTRUCTURE
1   ZINC000174621331 1     RESIDUE    1   A     ZIN   1
@<TRIPOS>MOLECULE
ZINC001181473921
47	48	1	0	0
SMALL
USER_CHARGES
@<TRIPOS>ATOM
1      C1     -0.2934    1.4850    0.0441 C.3      1 ZINC001181473921   -0.1300
2      C2     -0.1294   -0.0128    0.0183 C.2      1 ZINC001181473921    0.1900
3      C3     -0.2320   -0.6741   -1.1544 C.2      1 ZINC001181473921   -0.2400
4      C4     -0.0790   -2.0746   -1.1847 C.2      1 ZINC001181473921    0.2500
5      O5     -0.1787   -2.7522   -2.3533 O.3      1 ZINC001181473921   -0.4600
6      C6      0.1748   -2.7463   -0.0032 C.2      1 ZINC001181473921   -0.3700
7      C7      0.2725   -2.0171    1.1876 C.2      1 ZINC001181473921    0.5300
8      O8      0.4967   -2.5955    2.2395 O.2      1 ZINC001181473921   -0.5500
9      N9      0.1254   -0.6793    1.1748 N.am     1 ZINC001181473921   -0.5000
10     C10     0.2310    0.0693    2.4297 C.3      1 ZINC001181473921    0.1000
11     C11     1.6919    0.4530    2.6732 C.3      1 ZINC001181473921   -0.1600
12     C12     1.8006    1.2231    3.9641 C.2      1 ZINC001181473921    0.5200
13     O13     0.8073    1.4433    4.6243 O.2      1 ZINC001181473921   -0.5300
14     N14     3.0015    1.6671    4.3849 N.am     1 ZINC001181473921   -0.7200
15     C15     3.1071    2.4157    5.6398 C.3      1 ZINC001181473921    0.1400
16     H16     2.3844    2.0488    6.3687 H        1 ZINC001181473921    0.1000
17     C17     2.9150    3.9325    5.3919 C.3      1 ZINC001181473921   -0.1300
18     C18     3.6308    4.6039    6.5821 C.3      1 ZINC001181473921   -0.1500
19     C19     4.6689    3.5922    7.0983 C.3      1 ZINC001181473921   -0.0800
20     H20     4.4537    3.3323    8.1348 H        1 ZINC001181473921    0.0900
21     C21     6.0761    4.1826    6.9878 C.3      1 ZINC001181473921   -0.6200
22     S22     6.2340    5.5864    8.1257 S.o2     1 ZINC001181473921    2.6100
23     N23     7.7849    6.1237    7.9064 N.am     1 ZINC001181473921   -1.2500
24     O24     5.4231    6.6710    7.6951 O.2      1 ZINC001181473921   -0.9600
25     O25     6.2050    5.1405    9.4746 O.2      1 ZINC001181473921   -0.9600
26     C26     4.5465    2.3370    6.2064 C.3      1 ZINC001181473921   -0.1200
27     H27     0.5849    1.9388    0.5032 H        1 ZINC001181473921    0.0900
28     H28    -0.4034    1.8560   -0.9749 H        1 ZINC001181473921    0.1000
29     H29    -1.1803    1.7435    0.6225 H        1 ZINC001181473921    0.0900
30     H30    -0.4310   -0.1312   -2.0666 H        1 ZINC001181473921    0.1500
31     H31    -0.0581   -3.7076   -2.2655 H        1 ZINC001181473921    0.4100
32     H32     0.2958   -3.8195    0.0009 H        1 ZINC001181473921    0.1500
33     H33    -0.3761    0.9723    2.3663 H        1 ZINC001181473921    0.1000
34     H34    -0.1241   -0.5502    3.2533 H        1 ZINC001181473921    0.1100
35     H35     2.2991   -0.4500    2.7367 H        1 ZINC001181473921    0.1100
36     H36     2.0470    1.0725    1.8497 H        1 ZINC001181473921    0.1000
37     H37     3.7959    1.4910    3.8569 H        1 ZINC001181473921    0.4000
38     H38     3.3803    4.2273    4.4513 H        1 ZINC001181473921    0.0700
39     H39     1.8553    4.1877    5.3908 H        1 ZINC001181473921    0.0800
40     H40     4.1295    5.5152    6.2521 H        1 ZINC001181473921    0.0900
41     H41     2.9118    4.8351    7.3681 H        1 ZINC001181473921    0.0800
42     H42     6.8112    3.4205    7.2467 H        1 ZINC001181473921    0.1400
43     H43     6.2486    4.5217    5.9663 H        1 ZINC001181473921    0.1400
44     H44     8.3664    5.6800    7.2693 H        1 ZINC001181473921    0.4100
45     H45     8.1120    6.8822    8.4150 H        1 ZINC001181473921    0.4200
46     H46     4.6791    1.4327    6.8002 H        1 ZINC001181473921    0.0800
47     H47     5.2745    2.3725    5.3959 H        1 ZINC001181473921    0.0800
@<TRIPOS>BOND
1     1     2     1
2     1     27    1
3     1     28    1
4     1     29    1
5     2     9     1
6     2     3     2
7     3     4     1
8     3     30    1
9     4     5     1
10    4     6     2
11    5     31    1
12    6     7     1
13    6     32    1
14    7     8     2
15    7     9     am
16    9     10    1
17    10    11    1
18    10    33    1
19    10    34    1
20    11    12    1
21    11    35    1
22    11    36    1
23    12    13    2
24    12    14    am
25    14    15    1
26    14    37    1
27    15    16    1
28    15    26    1
29    15    17    1
30    17    18    1
31    17    38    1
32    17    39    1
33    18    19    1
34    18    40    1
35    18    41    1
36    19    20    1
37    19    21    1
38    19    26    1
39    21    22    1
40    21    42    1
41    21    43    1
42    22    23    am
43    22    24    2
44    22    25    2
45    23    44    1
46    23    45    1
47    26    46    1
48    26    47    1
@<TRIPOS>SUBSTRUCTURE
1   ZINC001181473921 1     RESIDUE    1   A     ZIN   1
@<TRIPOS>MOLECULE
ZINC000503413572
44	47	1	0	0
SMALL
USER_CHARGES
@<TRIPOS>ATOM
1      C1     -1.9715    0.6344    0.5261 C.3      1 ZINC000503413572   -0.1200
2      C2     -0.9329   -0.4221    0.2503 C.ar     1 ZINC000503413572   -0.0200
3      C3     -0.9989   -1.1698   -0.9087 C.ar     1 ZINC000503413572   -0.1400
4      C4     -0.0443   -2.1407   -1.1628 C.ar     1 ZINC000503413572    0.1300
5      F5     -0.1102   -2.8710   -2.2975 F        1 ZINC000503413572   -0.1300
6      C6      0.9778   -2.3633   -0.2556 C.ar     1 ZINC000503413572   -0.1400
7      C7      1.0470   -1.6173    0.9048 C.ar     1 ZINC000503413572   -0.0700
8      C8      0.0942   -0.6404    1.1587 C.ar     1 ZINC000503413572    0.1000
9      N9      0.1632    0.1186    2.3364 N.pl3    1 ZINC000503413572   -0.3100
10     C10     0.3619   -0.3512    3.5869 C.2      1 ZINC000503413572    0.1100
11     C11     0.3579    0.7312    4.4206 C.2      1 ZINC000503413572   -0.1000
12     C12     0.5404    0.6932    5.8839 C.2      1 ZINC000503413572    0.6100
13     O13     0.7132   -0.3702    6.4476 O.2      1 ZINC000503413572   -0.5300
14     N14     0.5156    1.8372    6.5960 N.am     1 ZINC000503413572   -0.7200
15     C15     0.6968    1.7995    8.0493 C.3      1 ZINC000503413572    0.1100
16     C16     0.6262    3.2216    8.6091 C.3      1 ZINC000503413572    0.1000
17     N17     0.8074    3.1838   10.0624 N.pl3    1 ZINC000503413572   -0.4700
18     C18    -0.1658    3.1466   11.0044 C.2      1 ZINC000503413572    0.1500
19     N19     0.4223    3.1216   12.1694 N.2      1 ZINC000503413572   -0.2900
20     N20     1.6983    3.1408   12.0108 N.2      1 ZINC000503413572   -0.2900
21     C21     1.9823    3.1731   10.7372 C.2      1 ZINC000503413572    0.2100
22     C22     3.3613    3.2033   10.1302 C.3      1 ZINC000503413572   -0.1000
23     C23     4.5462    3.4000   11.0779 C.3      1 ZINC000503413572   -0.1500
24     C24     4.2955    2.0320   10.4403 C.3      1 ZINC000503413572   -0.1600
25     N25     0.1596    1.8366    3.6821 N.2      1 ZINC000503413572   -0.2000
26     N26     0.0452    1.5118    2.4415 N.2      1 ZINC000503413572   -0.0400
27     H27    -1.6024    1.6033    0.1898 H        1 ZINC000503413572    0.0900
28     H28    -2.8895    0.3898   -0.0084 H        1 ZINC000503413572    0.0800
29     H29    -2.1739    0.6743    1.5964 H        1 ZINC000503413572    0.0700
30     H30    -1.7956   -0.9978   -1.6172 H        1 ZINC000503413572    0.1500
31     H31     1.7211   -3.1210   -0.4552 H        1 ZINC000503413572    0.1500
32     H32     1.8441   -1.7915    1.6124 H        1 ZINC000503413572    0.1500
33     H33     0.4974   -1.3838    3.8729 H        1 ZINC000503413572    0.2100
34     H34     0.3777    2.6856    6.1463 H        1 ZINC000503413572    0.4100
35     H35    -0.0899    1.1929    8.4979 H        1 ZINC000503413572    0.0800
36     H36     1.6687    1.3648    8.2831 H        1 ZINC000503413572    0.0800
37     H37     1.4129    3.8282    8.1605 H        1 ZINC000503413572    0.1100
38     H38    -0.3457    3.6563    8.3754 H        1 ZINC000503413572    0.1100
39     H39    -1.2307    3.1397   10.8247 H        1 ZINC000503413572    0.2200
40     H40     3.4290    3.6524    9.1393 H        1 ZINC000503413572    0.1200
41     H41     5.3937    3.9787   10.7106 H        1 ZINC000503413572    0.1100
42     H42     4.3283    3.5076   12.1405 H        1 ZINC000503413572    0.1100
43     H43     3.9127    1.2395   11.0834 H        1 ZINC000503413572    0.1000
44     H44     4.9780    1.7107    9.6535 H        1 ZINC000503413572    0.1100
@<TRIPOS>BOND
1     1     2     1
2     1     27    1
3     1     28    1
4     1     29    1
5     2     8     ar
6     2     3     ar
7     3     4     ar
8     3     30    1
9     4     5     1
10    4     6     ar
11    6     7     ar
12    6     31    1
13    7     8     ar
14    7     32    1
15    8     9     1
16    9     26    1
17    9     10    1
18    10    11    2
19    10    33    1
20    11    12    1
21    11    25    1
22    12    13    2
23    12    14    am
24    14    15    1
25    14    34    1
26    15    16    1
27    15    35    1
28    15    36    1
29    16    17    1
30    16    37    1
31    16    38    1
32    17    21    1
33    17    18    1
34    18    19    2
35    18    39    1
36    19    20    1
37    20    21    2
38    21    22    1
39    22    24    1
40    22    23    1
41    22    40    1
42    23    24    1
43    23    41    1
44    23    42    1
45    24    43    1
46    24    44    1
47    25    26    2
@<TRIPOS>SUBSTRUCTURE
1   ZINC000503413572 1     RESIDUE    1   A     ZIN   1
@<TRIPOS>MOLECULE
ZINC000587344575
55	57	1	0	0
SMALL
USER_CHARGES
@<TRIPOS>ATOM
1      C1     -1.3245    1.2541    0.0558 C.3      1 ZINC000587344575   -0.1200
2      C2     -0.6264   -0.0801   -0.0042 C.ar     1 ZINC000587344575    0.0000
3      C3     -0.7083   -0.8501   -1.1422 C.ar     1 ZINC000587344575   -0.1600
4      C4     -0.0636   -2.0819   -1.1986 C.ar     1 ZINC000587344575    0.1800
5      N5     -0.1483   -2.8592   -2.3532 N.am     1 ZINC000587344575   -0.6700
6      C6     -0.1845   -4.2032   -2.2596 C.2      1 ZINC000587344575    0.5200
7      O7     -0.2400   -4.7339   -1.1705 O.2      1 ZINC000587344575   -0.5000
8      C8     -0.1559   -5.0466   -3.5082 C.3      1 ZINC000587344575   -0.1200
9      H9      0.7513   -4.8467   -4.0783 H        1 ZINC000587344575    0.1100
10     C10    -1.4060   -4.7665   -4.3735 C.3      1 ZINC000587344575   -0.1200
11     C11    -1.7828   -6.1729   -4.9034 C.3      1 ZINC000587344575    0.0400
12     N12    -1.4904   -7.0606   -3.7490 N.3      1 ZINC000587344575   -0.4800
13     C13    -1.3320   -8.3817   -4.1625 C.ar     1 ZINC000587344575    0.0700
14     C14    -0.3263   -8.7103   -5.0650 C.ar     1 ZINC000587344575   -0.1200
15     C15    -0.1668  -10.0150   -5.4765 C.ar     1 ZINC000587344575   -0.0700
16     C16    -1.0164  -11.0104   -4.9861 C.ar     1 ZINC000587344575    0.0000
17     C17    -0.8522  -12.3677   -5.4121 C.1      1 ZINC000587344575    0.2500
18     N18    -0.7221  -13.4444   -5.7500 N.1      1 ZINC000587344575   -0.4000
19     C19    -2.0270  -10.6782   -4.0782 C.ar     1 ZINC000587344575   -0.1000
20     C20    -2.1781   -9.3719   -3.6664 C.ar     1 ZINC000587344575    0.1300
21     F21    -3.1534   -9.0492   -2.7890 F        1 ZINC000587344575   -0.1200
22     C22    -0.2413   -6.5408   -3.1460 C.3      1 ZINC000587344575    0.0500
23     C23     0.6657   -2.5395   -0.1059 C.ar     1 ZINC000587344575   -0.1400
24     C24     0.7518   -1.7743    1.0355 C.ar     1 ZINC000587344575   -0.0600
25     C25     0.1099   -0.5344    1.0935 C.ar     1 ZINC000587344575   -0.1600
26     C26     0.2004    0.2888    2.3153 C.2      1 ZINC000587344575    0.5600
27     O27    -0.2617    1.4133    2.3262 O.2      1 ZINC000587344575   -0.5300
28     N28     0.7953   -0.2061    3.4187 N.am     1 ZINC000587344575   -0.7200
29     C29     0.8851    0.6110    4.6314 C.3      1 ZINC000587344575    0.1400
30     C30     1.0011   -0.3016    5.8539 C.3      1 ZINC000587344575   -0.1600
31     C31     2.1188    1.5123    4.5489 C.3      1 ZINC000587344575   -0.1600
32     H32    -0.6164    2.0460   -0.1880 H        1 ZINC000587344575    0.0800
33     H33    -2.1453    1.2672   -0.6613 H        1 ZINC000587344575    0.0600
34     H34    -1.7169    1.4140    1.0601 H        1 ZINC000587344575    0.1000
35     H35    -1.2740   -0.4979   -1.9922 H        1 ZINC000587344575    0.1300
36     H36    -0.1812   -2.4326   -3.2237 H        1 ZINC000587344575    0.4100
37     H37    -2.2117   -4.3548   -3.7656 H        1 ZINC000587344575    0.0900
38     H38    -1.1623   -4.0963   -5.1978 H        1 ZINC000587344575    0.0900
39     H39    -2.8405   -6.2155   -5.1633 H        1 ZINC000587344575    0.0900
40     H40    -1.1640   -6.4396   -5.7602 H        1 ZINC000587344575    0.0600
41     H41     0.3304   -7.9412   -5.4441 H        1 ZINC000587344575    0.1400
42     H42     0.6142  -10.2686   -6.1780 H        1 ZINC000587344575    0.1400
43     H43    -2.6852  -11.4450   -3.6972 H        1 ZINC000587344575    0.1500
44     H44     0.6177   -7.0737   -3.5539 H        1 ZINC000587344575    0.0600
45     H45    -0.2747   -6.6589   -2.0629 H        1 ZINC000587344575    0.1100
46     H46     1.1646   -3.4962   -0.1528 H        1 ZINC000587344575    0.1400
47     H47     1.3181   -2.1301    1.8835 H        1 ZINC000587344575    0.1300
48     H48     1.1640   -1.1032    3.4100 H        1 ZINC000587344575    0.4000
49     H49    -0.0095    1.2271    4.7215 H        1 ZINC000587344575    0.0900
50     H50     1.8958   -0.9177    5.7638 H        1 ZINC000587344575    0.0600
51     H51     1.0679    0.3063    6.7561 H        1 ZINC000587344575    0.0700
52     H52     0.1222   -0.9437    5.9127 H        1 ZINC000587344575    0.0600
53     H53     3.0135    0.8962    4.4588 H        1 ZINC000587344575    0.0600
54     H54     2.0362    2.1624    3.6780 H        1 ZINC000587344575    0.0600
55     H55     2.1856    2.1202    5.4511 H        1 ZINC000587344575    0.0700
@<TRIPOS>BOND
1     1     2     1
2     1     32    1
3     1     33    1
4     1     34    1
5     2     25    ar
6     2     3     ar
7     3     4     ar
8     3     35    1
9     4     5     1
10    4     23    ar
11    5     6     am
12    5     36    1
13    6     7     2
14    6     8     1
15    8     9     1
16    8     22    1
17    8     10    1
18    10    11    1
19    10    37    1
20    10    38    1
21    11    12    1
22    11    39    1
23    11    40    1
24    12    13    1
25    12    22    1
26    13    20    ar
27    13    14    ar
28    14    15    ar
29    14    41    1
30    15    16    ar
31    15    42    1
32    16    17    1
33    16    19    ar
34    17    18    3
35    19    20    ar
36    19    43    1
37    20    21    1
38    22    44    1
39    22    45    1
40    23    24    ar
41    23    46    1
42    24    25    ar
43    24    47    1
44    25    26    1
45    26    27    2
46    26    28    am
47    28    29    1
48    28    48    1
49    29    30    1
50    29    31    1
51    29    49    1
52    30    50    1
53    30    51    1
54    30    52    1
55    31    53    1
56    31    54    1
57    31    55    1
@<TRIPOS>SUBSTRUCTURE
1   ZINC000587344575 1     RESIDUE    1   A     ZIN   1
@<TRIPOS>MOLECULE
ZINC000342525234
40	43	0	0	0
SMALL
USER_CHARGES
@<TRIPOS>ATOM
1 O1        0.0021    -0.0041     0.0020 O.2    1 <0>      -0.5100
2 C2       -0.0144     1.2107     0.0087 C.2    1 <0>       0.6000
3 N3        1.1435     1.9004     0.0013 N.am   1 <0>      -0.7100
4 C4        2.4220     1.1853    -0.0147 C.3    1 <0>       0.1200
5 C5        3.5713     2.1953    -0.0203 C.3    1 <0>      -0.0900
6 C6        4.8864     1.4596    -0.0368 C.ar   1 <0>      -0.0400
7 C7        5.4705     1.1265     1.1412 C.ar   1 <0>      -0.1000
8 C8        6.7024     0.4373     1.1381 C.ar   1 <0>       0.1100
9 N9        7.5126    -0.0205     2.0751 N.2    1 <0>      -0.3100
10 N10       8.6134    -0.6327     1.4651 N.pl3  1 <0>      -0.4200
11 C11       8.4964    -0.5604     0.1323 C.2    1 <0>       0.0900
12 C12       7.3168     0.1006    -0.1556 C.ar   1 <0>      -0.2100
13 C13       6.6524     0.4787    -1.3419 C.ar   1 <0>      -0.0400
14 C14       5.4674     1.1346    -1.2647 C.ar   1 <0>      -0.1500
15 C15      -1.3090     1.9349     0.0188 C.2    1 <0>      -0.0200
16 N16      -1.4829     3.2339     0.0209 N.2    1 <0>      -0.3200
17 O17      -2.6550     3.5291     0.0298 O.3    1 <0>       0.1400
18 C18      -3.4432     2.4397     0.0349 C.2    1 <0>       0.0100
19 C19      -4.9219     2.4157     0.0459 C.ar   1 <0>       0.0200
20 C20      -5.6215     1.2035     0.0556 C.ar   1 <0>      -0.1400
21 C21      -7.0009     1.2276     0.0661 C.ar   1 <0>       0.1100
22 N22      -7.6586     2.3712     0.0666 N.ar   1 <0>      -0.4800
23 C23      -7.0384     3.5356     0.0576 C.ar   1 <0>       0.1100
24 C24      -5.6605     3.6044     0.0526 C.ar   1 <0>      -0.1500
25 C25      -2.6067     1.3590     0.0218 C.2    1 <0>      -0.1500
26 H26       1.1303     2.8703     0.0067 H      1 <0>       0.4100
27 H27       2.4967     0.5547     0.8712 H      1 <0>       0.0800
28 H28       2.4797     0.5643    -0.9086 H      1 <0>       0.0800
29 H29       3.4965     2.8258    -0.9062 H      1 <0>       0.0900
30 H30       3.5135     2.8163     0.8737 H      1 <0>       0.0800
31 H31       4.9962     1.3872     2.0757 H      1 <0>       0.1300
32 H32       9.3520    -1.0478     1.9373 H      1 <0>       0.4500
33 H33       9.1994    -0.9493    -0.5894 H      1 <0>       0.1900
34 H34       7.0820     0.2435    -2.3045 H      1 <0>       0.1300
35 H35       4.9643     1.4206    -2.1766 H      1 <0>       0.1200
36 H36      -5.0896     0.2636     0.0546 H      1 <0>       0.1400
37 H37      -7.5498     0.2975     0.0737 H      1 <0>       0.1700
38 H38      -7.6173     4.4473     0.0583 H      1 <0>       0.1700
39 H39      -5.1595     4.5612     0.0453 H      1 <0>       0.1500
40 H40      -2.8709     0.3118     0.0206 H      1 <0>       0.1900
@<TRIPOS>BOND
1    1    2 2
2    2    3 am
3    2   15 1
4    3    4 1
5    3   26 1
6    4    5 1
7    4   27 1
8    4   28 1
9    5    6 1
10    5   29 1
11    5   30 1
12    6   14 ar
13    6    7 ar
14    7    8 ar
15    7   31 1
16    8   12 ar
17    8    9 2
18    9   10 1
19   10   11 1
20   10   32 1
21   11   12 2
22   11   33 1
23   12   13 ar
24   13   14 ar
25   13   34 1
26   14   35 1
27   15   25 1
28   15   16 2
29   16   17 1
30   17   18 1
31   18   19 1
32   18   25 2
33   19   24 ar
34   19   20 ar
35   20   21 ar
36   20   36 1
37   21   22 ar
38   21   37 1
39   22   23 ar
40   23   24 ar
41   23   38 1
42   24   39 1
43   25   40 1
@<TRIPOS>MOLECULE
ZINC000011972961
51	54	0	0	0
SMALL
USER_CHARGES
@<TRIPOS>ATOM
1 C1            -1.2515     1.8833     0.1304 C.3
2 C2            -1.5727     0.4204    -0.0360 C.2
3 C3            -1.6356    -0.1649    -1.2387 C.2
4 C4            -1.4064     0.5229    -2.5152 C.2
5 O5            -1.2783     1.7327    -2.5400 O.2
6 N6            -1.3378    -0.1856    -3.6596 N.am
7 C7            -1.4158    -1.6481    -3.6215 C.3
8 C8            -1.1852     0.5066    -4.9417 C.3
9 H9            -1.1566     1.5857    -4.7906 H
10 C10            0.0955     0.0270    -5.6674 C.3
11 C11           -0.4663    -1.0283    -6.6539 C.3
12 O12           -1.7291    -0.4639    -7.0678 O.3
13 C13           -2.3307     0.1263    -5.8997 C.3
14 S14           -2.0293    -1.8680    -1.0786 S.3
15 C15           -2.1007    -1.7375     0.6736 C.ar
16 N16           -2.3605    -2.6495     1.6173 N.ar
17 C17           -2.3605    -2.3266     2.8904 C.ar
18 N18           -2.1072    -1.0987     3.3050 N.ar
19 C19           -1.8385    -0.1250     2.4485 C.ar
20 N20           -1.5760     1.1527     2.8994 N.pl3
21 C21           -1.7237     1.4725     4.3214 C.3
22 C22           -1.3796     2.9219     4.5487 C.ar
23 N23           -0.1206     3.2734     4.7219 N.ar
24 C24            0.2273     4.5295     4.9234 C.ar
25 C25            1.6808     4.8780     5.1157 C.3
26 C26           -0.7254     5.5297     4.9599 C.ar
27 C27           -2.0601     5.1984     4.7818 C.ar
28 C28           -2.3869     3.8683     4.5677 C.ar
29 C29           -1.8193    -0.4185     1.0557 C.ar
30 H30           -0.2707     1.9895     0.5941 H
31 H31           -1.2461     2.3676    -0.8461 H
32 H32           -2.0053     2.3511     0.7638 H
33 H33           -2.4037    -1.9503    -3.2741 H
34 H34           -1.2443    -2.0472    -4.6212 H
35 H35           -0.6573    -2.0348    -2.9408 H
36 H36            0.5689     0.8487    -6.2048 H
37 H37            0.7928    -0.4296    -4.9649 H
38 H38            0.1995    -1.1473    -7.5087 H
39 H39           -0.6192    -1.9823    -6.1494 H
40 H40           -2.9917    -0.5947    -5.4188 H
41 H41           -2.8928     1.0166    -6.1819 H
42 H42           -2.5753    -3.0908     3.6226 H
43 H43           -1.2937     1.8390     2.2747 H
44 H44           -2.7533     1.2908     4.6297 H
45 H45           -1.0528     0.8437     4.9068 H
46 H46            2.1331     5.0965     4.1484 H
47 H47            1.7624     5.7528     5.7608 H
48 H48            2.1982     4.0368     5.5770 H
49 H49           -0.4342     6.5565     5.1253 H
50 H50           -2.8265     5.9591     4.8054 H
51 H51           -3.4162     3.5743     4.4247 H
@<TRIPOS>BOND
1    1    2 1
2    1   30 1
3    1   31 1
4    1   32 1
5    2   29 1
6    2    3 2
7    3    4 1
8    3   14 1
9    4    5 2
10    4    6 am
11    6    7 1
12    6    8 1
13    7   33 1
14    7   34 1
15    7   35 1
16    8    9 1
17    8   13 1
18    8   10 1
19   10   11 1
20   10   36 1
21   10   37 1
22   11   12 1
23   11   38 1
24   11   39 1
25   12   13 1
26   13   40 1
27   13   41 1
28   14   15 1
29   15   29 ar
30   15   16 ar
31   16   17 ar
32   17   18 ar
33   17   42 1
34   18   19 ar
35   19   20 1
36   19   29 ar
37   20   21 1
38   20   43 1
39   21   22 1
40   21   44 1
41   21   45 1
42   22   28 ar
43   22   23 ar
44   23   24 ar
45   24   25 1
46   24   26 ar
47   25   46 1
48   25   47 1
49   25   48 1
50   26   27 ar
51   26   49 1
52   27   28 ar
53   27   50 1
54   28   51 1
@<TRIPOS>MOLECULE
ZINC000192150625
51	54	1	0	0
SMALL
USER_CHARGES
@<TRIPOS>ATOM
1      C1      3.4615   -0.2728   -2.0178 C.3      1 ZINC000192150625   -0.0800
2      C2      2.4470   -1.2500   -1.4820 C.2      1 ZINC000192150625    0.0400
3      C3      2.3500   -2.5343   -1.8512 C.2      1 ZINC000192150625   -0.1800
4      C4      3.2124   -3.2550   -2.8551 C.3      1 ZINC000192150625   -0.0800
5      C5      1.2348   -3.0985   -1.0809 C.ar     1 ZINC000192150625   -0.1000
6      C6      0.6405   -4.3567   -1.0090 C.ar     1 ZINC000192150625   -0.0700
7      C7     -0.4277   -4.5590   -0.1521 C.ar     1 ZINC000192150625    0.1200
8      N8     -1.0305   -5.8188   -0.0729 N.am     1 ZINC000192150625   -0.6400
9      C9     -0.2862   -6.9325   -0.2219 C.2      1 ZINC000192150625    0.5100
10     O10     0.9199   -6.8467   -0.3286 O.2      1 ZINC000192150625   -0.4900
11     C11    -0.9454   -8.2722   -0.2556 C.2      1 ZINC000192150625    0.5100
12     O12    -2.1562   -8.3524   -0.2738 O.2      1 ZINC000192150625   -0.5200
13     N13    -0.1956   -9.3921   -0.2659 N.am     1 ZINC000192150625   -0.5800
14     C14     1.2714   -9.3108   -0.2666 C.3      1 ZINC000192150625    0.0500
15     C15     1.8125  -10.1527    0.8932 C.3      1 ZINC000192150625   -0.1200
16     C16     1.2618  -11.5765    0.7852 C.3      1 ZINC000192150625   -0.0500
17     C17     1.8190  -12.4166    1.9054 C.ar     1 ZINC000192150625   -0.0300
18     C18     1.5821  -12.0811    3.2296 C.ar     1 ZINC000192150625   -0.1700
19     C19     2.1093  -12.8754    4.2303 C.ar     1 ZINC000192150625    0.1000
20     N20     2.8300  -13.9401    3.9371 N.ar     1 ZINC000192150625   -0.4900
21     C21     3.0755  -14.2892    2.6893 C.ar     1 ZINC000192150625    0.1000
22     C22     2.5760  -13.5466    1.6362 C.ar     1 ZINC000192150625   -0.1700
23     C23    -0.2650  -11.5435    0.8834 C.3      1 ZINC000192150625   -0.1200
24     C24    -0.8296  -10.7175   -0.2704 C.3      1 ZINC000192150625    0.1100
25     C25    -0.9033   -3.5098    0.6320 C.ar     1 ZINC000192150625   -0.1100
26     C26    -0.3200   -2.2638    0.5654 C.ar     1 ZINC000192150625   -0.0800
27     C27     0.7530   -2.0425   -0.2889 C.ar     1 ZINC000192150625    0.0500
28     O28     1.5123   -0.9607   -0.5602 O.3      1 ZINC000192150625   -0.1900
29     H29     3.3172    0.6977   -1.5430 H        1 ZINC000192150625    0.0800
30     H30     4.4659   -0.6370   -1.8023 H        1 ZINC000192150625    0.0900
31     H31     3.3350   -0.1722   -3.0958 H        1 ZINC000192150625    0.0900
32     H32     4.0719   -3.6931   -2.3476 H        1 ZINC000192150625    0.0700
33     H33     2.6317   -4.0439   -3.3331 H        1 ZINC000192150625    0.0700
34     H34     3.5575   -2.5492   -3.6107 H        1 ZINC000192150625    0.0700
35     H35     1.0105   -5.1684   -1.6179 H        1 ZINC000192150625    0.1400
36     H36    -1.9841   -5.8909    0.0892 H        1 ZINC000192150625    0.4300
37     H37     1.6583   -9.6967   -1.2098 H        1 ZINC000192150625    0.0700
38     H38     1.5800   -8.2731   -0.1400 H        1 ZINC000192150625    0.1600
39     H39     2.9012  -10.1791    0.8467 H        1 ZINC000192150625    0.0800
40     H40     1.4990   -9.7122    1.8397 H        1 ZINC000192150625    0.0700
41     H41     1.5547  -12.0074   -0.1722 H        1 ZINC000192150625    0.0900
42     H42     0.9932  -11.2100    3.4761 H        1 ZINC000192150625    0.1300
43     H43     1.9293  -12.6209    5.2643 H        1 ZINC000192150625    0.1600
44     H44     3.6703  -15.1678    2.4881 H        1 ZINC000192150625    0.1600
45     H45     2.7802  -13.8378    0.6164 H        1 ZINC000192150625    0.1300
46     H46    -0.6551  -12.5600    0.8298 H        1 ZINC000192150625    0.0800
47     H47    -0.5590  -11.0900    1.8300 H        1 ZINC000192150625    0.0700
48     H48    -1.9074  -10.6088   -0.1489 H        1 ZINC000192150625    0.1000
49     H49    -0.6148  -11.2156   -1.2158 H        1 ZINC000192150625    0.0800
50     H50    -1.7374   -3.6751    1.2979 H        1 ZINC000192150625    0.1400
51     H51    -0.6970   -1.4581    1.1778 H        1 ZINC000192150625    0.1400
@<TRIPOS>BOND
1     1     2     1
2     1     29    1
3     1     30    1
4     1     31    1
5     2     28    1
6     2     3     2
7     3     4     1
8     3     5     1
9     4     32    1
10    4     33    1
11    4     34    1
12    5     27    ar
13    5     6     ar
14    6     7     ar
15    6     35    1
16    7     8     1
17    7     25    ar
18    8     9     am
19    8     36    1
20    9     10    2
21    9     11    1
22    11    12    2
23    11    13    am
24    13    24    1
25    13    14    1
26    14    15    1
27    14    37    1
28    14    38    1
29    15    16    1
30    15    39    1
31    15    40    1
32    16    17    1
33    16    23    1
34    16    41    1
35    17    22    ar
36    17    18    ar
37    18    19    ar
38    18    42    1
39    19    20    ar
40    19    43    1
41    20    21    ar
42    21    22    ar
43    21    44    1
44    22    45    1
45    23    24    1
46    23    46    1
47    23    47    1
48    24    48    1
49    24    49    1
50    25    26    ar
51    25    50    1
52    26    27    ar
53    26    51    1
54    27    28    1
@<TRIPOS>SUBSTRUCTURE
1   ZINC000192150625 1     RESIDUE    1   A     ZIN   1
@<TRIPOS>MOLECULE
ZINC000054627026
42	46	1	0	0
SMALL
USER_CHARGES
@<TRIPOS>ATOM
1      O1      0.1606    0.2549    1.1223 O.2      1 ZINC000054627026   -0.5200
2      C2      0.0680    1.3464    0.5943 C.2      1 ZINC000054627026    0.6100
3      N3      1.1435    1.9016    0.0014 N.am     1 ZINC000054627026   -0.6500
4      C4      2.3898    1.2673    0.0764 C.ar     1 ZINC000054627026    0.1400
5      C5      2.4612   -0.1240    0.0561 C.ar     1 ZINC000054627026   -0.0900
6      C6      3.6817   -0.7609    0.1289 C.ar     1 ZINC000054627026   -0.0900
7      C7      4.8478   -0.0153    0.2230 C.ar     1 ZINC000054627026    0.0500
8      N8      6.1894   -0.3441    0.3102 N.pl3    1 ZINC000054627026   -0.5900
9      C9      6.8904    0.8320    0.3803 C.2      1 ZINC000054627026    0.3700
10     C10     8.3531    0.9407    0.4834 C.2      1 ZINC000054627026    0.0200
11     C11     9.0663    2.0999    0.5595 C.2      1 ZINC000054627026   -0.1200
12     C12    10.4223    1.7359    0.6451 C.2      1 ZINC000054627026   -0.2200
13     C13    10.4732    0.3879    0.6176 C.2      1 ZINC000054627026   -0.0100
14     O14     9.2225   -0.0887    0.5251 O.3      1 ZINC000054627026   -0.1700
15     N15     6.0574    1.8472    0.3409 N.2      1 ZINC000054627026   -0.4600
16     C16     4.7856    1.3897    0.2442 C.ar     1 ZINC000054627026    0.0700
17     C17     3.5425    2.0252    0.1645 C.ar     1 ZINC000054627026   -0.0900
18     C18    -1.2228    2.0600    0.5974 C.2      1 ZINC000054627026   -0.1000
19     C19    -2.3830    1.6095    1.1610 C.2      1 ZINC000054627026    0.1000
20     N20    -3.3181    2.5594    0.9415 N.pl3    1 ZINC000054627026   -0.3100
21     C21    -4.6601    2.5212    1.3461 C.ar     1 ZINC000054627026    0.1300
22     C22    -5.1427    1.4279    2.0527 C.ar     1 ZINC000054627026   -0.1200
23     C23    -6.4649    1.3933    2.4503 C.ar     1 ZINC000054627026   -0.1000
24     C24    -7.3080    2.4460    2.1450 C.ar     1 ZINC000054627026   -0.1100
25     C25    -6.8303    3.5361    1.4409 C.ar     1 ZINC000054627026   -0.1000
26     C26    -5.5075    3.5791    1.0460 C.ar     1 ZINC000054627026   -0.1000
27     N27    -2.6878    3.5912    0.2315 N.2      1 ZINC000054627026   -0.0500
28     N28    -1.4551    3.2662    0.0513 N.2      1 ZINC000054627026   -0.2000
29     H29     1.0543    2.7405   -0.4774 H        1 ZINC000054627026    0.4200
30     H30     1.5550   -0.7069   -0.0167 H        1 ZINC000054627026    0.1500
31     H31     3.7300   -1.8398    0.1130 H        1 ZINC000054627026    0.1300
32     H32     6.5635   -1.2390    0.3204 H        1 ZINC000054627026    0.4300
33     H33     8.6675    3.1036    0.5544 H        1 ZINC000054627026    0.1600
34     H34    11.2640    2.4086    0.7186 H        1 ZINC000054627026    0.1600
35     H35    11.3721   -0.2089    0.6656 H        1 ZINC000054627026    0.2100
36     H36     3.4830    3.1036    0.1746 H        1 ZINC000054627026    0.1400
37     H37    -2.5253    0.6740    1.6815 H        1 ZINC000054627026    0.2100
38     H38    -4.4849    0.6051    2.2909 H        1 ZINC000054627026    0.1400
39     H39    -6.8409    0.5431    3.0000 H        1 ZINC000054627026    0.1400
40     H40    -8.3416    2.4166    2.4566 H        1 ZINC000054627026    0.1400
41     H41    -7.4912    4.3566    1.2036 H        1 ZINC000054627026    0.1400
42     H42    -5.1350    4.4308    0.4961 H        1 ZINC000054627026    0.1400
@<TRIPOS>BOND
1     1     2     2
2     2     3     am
3     2     18    1
4     3     4     1
5     3     29    1
6     4     17    ar
7     4     5     ar
8     5     6     ar
9     5     30    1
10    6     7     ar
11    6     31    1
12    7     16    ar
13    7     8     1
14    8     9     1
15    8     32    1
16    9     10    1
17    9     15    2
18    10    14    1
19    10    11    2
20    11    12    1
21    11    33    1
22    12    13    2
23    12    34    1
24    13    14    1
25    13    35    1
26    15    16    1
27    16    17    ar
28    17    36    1
29    18    28    1
30    18    19    2
31    19    20    1
32    19    37    1
33    20    21    1
34    20    27    1
35    21    26    ar
36    21    22    ar
37    22    23    ar
38    22    38    1
39    23    24    ar
40    23    39    1
41    24    25    ar
42    24    40    1
43    25    26    ar
44    25    41    1
45    26    42    1
46    27    28    2
@<TRIPOS>SUBSTRUCTURE
1   ZINC000054627026 1     RESIDUE    1   A     ZIN   1
@<TRIPOS>MOLECULE
ZINC000914736341
52	54	1	0	0
SMALL
USER_CHARGES
@<TRIPOS>ATOM
1      C1     -0.0187    1.5258    0.0104 C.3      1 ZINC000914736341   -0.1400
2      C2      0.0021   -0.0041    0.0020 C.3      1 ZINC000914736341   -0.0300
3      C3      0.7421   -0.5109    1.2415 C.3      1 ZINC000914736341   -0.1400
4      C4     -1.4333   -0.5336    0.0129 C.3      1 ZINC000914736341    0.1300
5      N5     -2.1190   -0.0612    1.2182 N.am     1 ZINC000914736341   -0.7200
6      C6     -3.4027   -0.4055    1.4419 C.2      1 ZINC000914736341    0.5300
7      O7     -3.9902   -1.1064    0.6454 O.2      1 ZINC000914736341   -0.5300
8      C8     -4.1081    0.0805    2.6818 C.3      1 ZINC000914736341   -0.1200
9      H9     -4.1250    1.1698    2.7169 H        1 ZINC000914736341    0.1200
10     C10    -3.4545   -0.5041    3.9554 C.3      1 ZINC000914736341   -0.1400
11     C11    -4.6199   -0.7652    4.8840 C.2      1 ZINC000914736341    0.5200
12     O12    -4.5270   -0.9587    6.0777 O.2      1 ZINC000914736341   -0.5200
13     N13    -5.7732   -0.7511    4.1937 N.am     1 ZINC000914736341   -0.6100
14     C14    -7.0953   -0.9608    4.7889 C.3      1 ZINC000914736341    0.1600
15     C15    -7.6676    0.3646    5.2212 C.ar     1 ZINC000914736341   -0.1000
16     C16    -7.5981    0.7479    6.5471 C.ar     1 ZINC000914736341   -0.0800
17     C17    -8.1231    1.9638    6.9439 C.ar     1 ZINC000914736341   -0.1100
18     C18    -8.7182    2.7965    6.0150 C.ar     1 ZINC000914736341   -0.1000
19     C19    -8.7883    2.4142    4.6884 C.ar     1 ZINC000914736341   -0.1100
20     C20    -8.2577    1.2005    4.2897 C.ar     1 ZINC000914736341   -0.0300
21     Cl21   -8.3454    0.7197    2.6239 Cl       1 ZINC000914736341   -0.0600
22     C22    -5.5381   -0.4976    2.7668 C.3      1 ZINC000914736341    0.1000
23     C23     0.7074   -0.4901   -1.2379 C.ar     1 ZINC000914736341   -0.0700
24     C24     0.0361   -1.2843   -2.1485 C.ar     1 ZINC000914736341   -0.1200
25     C25     0.6831   -1.7301   -3.2859 C.ar     1 ZINC000914736341   -0.1200
26     C26     2.0014   -1.3813   -3.5127 C.ar     1 ZINC000914736341   -0.1200
27     C27     2.6724   -0.5863   -2.6025 C.ar     1 ZINC000914736341   -0.1200
28     C28     2.0241   -0.1370   -1.4673 C.ar     1 ZINC000914736341   -0.1100
29     H29     1.0039    1.9031    0.0027 H        1 ZINC000914736341    0.0600
30     H30    -0.5459    1.8868   -0.8726 H        1 ZINC000914736341    0.0600
31     H31    -0.5289    1.8773    0.9072 H        1 ZINC000914736341    0.0600
32     H32     0.2319   -0.1594    2.1383 H        1 ZINC000914736341    0.0600
33     H33     0.7568   -1.6008    1.2356 H        1 ZINC000914736341    0.0600
34     H34     1.7647   -0.1336    1.2338 H        1 ZINC000914736341    0.0600
35     H35    -1.9605   -0.1726   -0.8702 H        1 ZINC000914736341    0.0700
36     H36    -1.4185   -1.6235    0.0069 H        1 ZINC000914736341    0.0700
37     H37    -1.6491    0.4994    1.8553 H        1 ZINC000914736341    0.4000
38     H38    -2.9346   -1.4340    3.7249 H        1 ZINC000914736341    0.1100
39     H39    -2.7684    0.2181    4.3979 H        1 ZINC000914736341    0.1100
40     H40    -7.7563   -1.4194    4.0533 H        1 ZINC000914736341    0.1000
41     H41    -7.0042   -1.6169    5.6545 H        1 ZINC000914736341    0.1000
42     H42    -7.1339    0.0974    7.2735 H        1 ZINC000914736341    0.1400
43     H43    -8.0685    2.2630    7.9802 H        1 ZINC000914736341    0.1300
44     H44    -9.1288    3.7459    6.3256 H        1 ZINC000914736341    0.1300
45     H45    -9.2533    3.0649    3.9626 H        1 ZINC000914736341    0.1400
46     H46    -6.2612    0.2247    2.3879 H        1 ZINC000914736341    0.1000
47     H47    -5.6023   -1.4281    2.2028 H        1 ZINC000914736341    0.0900
48     H48    -0.9938   -1.5568   -1.9713 H        1 ZINC000914736341    0.1300
49     H49     0.1588   -2.3512   -3.9970 H        1 ZINC000914736341    0.1200
50     H50     2.5071   -1.7302   -4.4010 H        1 ZINC000914736341    0.1200
51     H51     3.7024   -0.3141   -2.7796 H        1 ZINC000914736341    0.1200
52     H52     2.5484    0.4842   -0.7562 H        1 ZINC000914736341    0.1200
@<TRIPOS>BOND
1     1     2     1
2     1     29    1
3     1     30    1
4     1     31    1
5     2     3     1
6     2     4     1
7     2     23    1
8     3     32    1
9     3     33    1
10    3     34    1
11    4     5     1
12    4     35    1
13    4     36    1
14    5     6     am
15    5     37    1
16    6     7     2
17    6     8     1
18    8     9     1
19    8     22    1
20    8     10    1
21    10    11    1
22    10    38    1
23    10    39    1
24    11    12    2
25    11    13    am
26    13    14    1
27    13    22    1
28    14    15    1
29    14    40    1
30    14    41    1
31    15    20    ar
32    15    16    ar
33    16    17    ar
34    16    42    1
35    17    18    ar
36    17    43    1
37    18    19    ar
38    18    44    1
39    19    20    ar
40    19    45    1
41    20    21    1
42    22    46    1
43    22    47    1
44    23    28    ar
45    23    24    ar
46    24    25    ar
47    24    48    1
48    25    26    ar
49    25    49    1
50    26    27    ar
51    26    50    1
52    27    28    ar
53    27    51    1
54    28    52    1
@<TRIPOS>SUBSTRUCTURE
1   ZINC000914736341 1     RESIDUE    1   A     ZIN   1
@<TRIPOS>MOLECULE
ZINC000558213406
58	61	1	0	0
SMALL
USER_CHARGES
@<TRIPOS>ATOM
1      O1      0.8204    5.6095    2.1445 O.2      1 ZINC000558213406   -0.5700
2      C2      0.1422    6.5793    1.8652 C.2      1 ZINC000558213406    0.7100
3      N3      0.7180    7.7917    1.7429 N.am     1 ZINC000558213406   -0.6800
4      C4      2.0801    7.9527    2.0305 C.ar     1 ZINC000558213406    0.1700
5      C5      2.5405    9.1491    2.5640 C.ar     1 ZINC000558213406   -0.1300
6      C6      3.8826    9.3070    2.8477 C.ar     1 ZINC000558213406   -0.1100
7      C7      4.7711    8.2707    2.5993 C.ar     1 ZINC000558213406    0.0600
8      O8      6.0925    8.4269    2.8784 O.3      1 ZINC000558213406   -0.2500
9      C9      6.4837    8.3492    4.1775 C.ar     1 ZINC000558213406    0.0700
10     C10     5.5502    8.1178    5.1829 C.ar     1 ZINC000558213406   -0.1500
11     C11     5.9971    8.0468    6.4926 C.ar     1 ZINC000558213406   -0.1300
12     C12     7.3446    8.2067    6.7555 C.ar     1 ZINC000558213406    0.0600
13     N13     8.2038    8.4253    5.7791 N.ar     1 ZINC000558213406   -0.4500
14     C14     7.8208    8.4938    4.5198 C.ar     1 ZINC000558213406    0.0800
15     C15     4.3114    7.0749    2.0667 C.ar     1 ZINC000558213406   -0.1000
16     C16     2.9687    6.9140    1.7875 C.ar     1 ZINC000558213406   -0.1100
17     N17    -1.1845    6.4409    1.6724 N.am     1 ZINC000558213406   -0.7300
18     C18    -1.8095    5.1219    1.7994 C.3      1 ZINC000558213406    0.1500
19     H19    -1.1317    4.3408    1.4549 H        1 ZINC000558213406    0.1100
20     C20    -2.2482    4.8612    3.2646 C.3      1 ZINC000558213406   -0.1400
21     C21    -3.4090    3.8545    3.0672 C.3      1 ZINC000558213406    0.1000
22     N22    -4.0942    4.3042    1.8417 N.am     1 ZINC000558213406   -0.6200
23     C23    -5.3794    4.0528    1.5231 C.2      1 ZINC000558213406    0.5400
24     O24    -6.1036    3.4946    2.3198 O.2      1 ZINC000558213406   -0.5300
25     C25    -5.9165    4.4653    0.1768 C.3      1 ZINC000558213406   -0.1000
26     C26    -6.2309    3.2176   -0.6509 C.3      1 ZINC000558213406   -0.1100
27     C27    -6.7762    3.6364   -2.0177 C.3      1 ZINC000558213406   -0.1200
28     C28    -8.0532    4.4574   -1.8276 C.3      1 ZINC000558213406   -0.1200
29     C29    -7.7387    5.7051   -0.9998 C.3      1 ZINC000558213406   -0.1200
30     C30    -7.1934    5.2863    0.3670 C.3      1 ZINC000558213406   -0.1100
31     C31    -3.1412    5.0716    1.0212 C.3      1 ZINC000558213406    0.1000
32     H32     0.1897    8.5528    1.4558 H        1 ZINC000558213406    0.4100
33     H33     1.8491    9.9560    2.7567 H        1 ZINC000558213406    0.1300
34     H34     4.2408   10.2376    3.2627 H        1 ZINC000558213406    0.1400
35     H35     4.5030    7.9969    4.9483 H        1 ZINC000558213406    0.1400
36     H36     5.3006    7.8688    7.2986 H        1 ZINC000558213406    0.1400
37     H37     7.6987    8.1523    7.7744 H        1 ZINC000558213406    0.1600
38     H38     8.5537    8.6740    3.7473 H        1 ZINC000558213406    0.1700
39     H39     5.0035    6.2685    1.8736 H        1 ZINC000558213406    0.1400
40     H40     2.6110    5.9830    1.3732 H        1 ZINC000558213406    0.1500
41     H41    -1.7255    7.2145    1.4495 H        1 ZINC000558213406    0.4000
42     H42    -1.4381    4.4151    3.8415 H        1 ZINC000558213406    0.0900
43     H43    -2.6022    5.7782    3.7355 H        1 ZINC000558213406    0.0800
44     H44    -3.0179    2.8458    2.9347 H        1 ZINC000558213406    0.0700
45     H45    -4.0902    3.8896    3.9173 H        1 ZINC000558213406    0.0800
46     H46    -5.1712    5.0677   -0.3426 H        1 ZINC000558213406    0.0900
47     H47    -5.3211    2.6326   -0.7864 H        1 ZINC000558213406    0.0600
48     H48    -6.9761    2.6152   -0.1314 H        1 ZINC000558213406    0.0700
49     H49    -6.0309    4.2387   -2.5372 H        1 ZINC000558213406    0.0600
50     H50    -7.0002    2.7475   -2.6074 H        1 ZINC000558213406    0.0700
51     H51    -8.4416    4.7557   -2.8013 H        1 ZINC000558213406    0.0600
52     H52    -8.7984    3.8550   -1.3081 H        1 ZINC000558213406    0.0600
53     H53    -6.9935    6.3075   -1.5193 H        1 ZINC000558213406    0.0600
54     H54    -8.6485    6.2900   -0.8644 H        1 ZINC000558213406    0.0700
55     H55    -7.9387    4.6840    0.8865 H        1 ZINC000558213406    0.0800
56     H56    -6.9694    6.1752    0.9567 H        1 ZINC000558213406    0.0600
57     H57    -3.5160    6.0833    0.8665 H        1 ZINC000558213406    0.0800
58     H58    -2.9965    4.5767    0.0608 H        1 ZINC000558213406    0.0800
@<TRIPOS>BOND
1     1     2     2
2     2     3     am
3     2     17    am
4     3     4     1
5     3     32    1
6     4     16    ar
7     4     5     ar
8     5     6     ar
9     5     33    1
10    6     7     ar
11    6     34    1
12    7     8     1
13    7     15    ar
14    8     9     1
15    9     14    ar
16    9     10    ar
17    10    11    ar
18    10    35    1
19    11    12    ar
20    11    36    1
21    12    13    ar
22    12    37    1
23    13    14    ar
24    14    38    1
25    15    16    ar
26    15    39    1
27    16    40    1
28    17    18    1
29    17    41    1
30    18    19    1
31    18    31    1
32    18    20    1
33    20    21    1
34    20    42    1
35    20    43    1
36    21    22    1
37    21    44    1
38    21    45    1
39    22    23    am
40    22    31    1
41    23    24    2
42    23    25    1
43    25    30    1
44    25    26    1
45    25    46    1
46    26    27    1
47    26    47    1
48    26    48    1
49    27    28    1
50    27    49    1
51    27    50    1
52    28    29    1
53    28    51    1
54    28    52    1
55    29    30    1
56    29    53    1
57    29    54    1
58    30    55    1
59    30    56    1
60    31    57    1
61    31    58    1
@<TRIPOS>SUBSTRUCTURE
1   ZINC000558213406 1     RESIDUE    1   A     ZIN   1
@<TRIPOS>MOLECULE
ZINC000563265674
44	45	1	0	0
SMALL
USER_CHARGES
@<TRIPOS>ATOM
1      C1     -0.0633    1.5022    0.0127 C.3      1 ZINC000563265674   -0.0600
2      C2     -0.0350   -0.0045    0.0041 C.2      1 ZINC000563265674    0.1700
3      N3     -0.0184   -0.7673   -1.0478 N.2      1 ZINC000563265674   -0.3800
4      O4      0.0035   -1.9348   -0.7194 O.3      1 ZINC000563265674    0.0900
5      C5      0.0029   -2.0305    0.6136 C.2      1 ZINC000563265674    0.1900
6      C6      0.0258   -3.3021    1.4221 C.3      1 ZINC000563265674    0.2100
7      C7      1.2744   -3.3218    2.3062 C.3      1 ZINC000563265674   -0.1400
8      C8     -1.2236   -3.3693    2.3025 C.3      1 ZINC000563265674   -0.1800
9      N9      0.0492   -4.4581    0.5160 N.3      1 ZINC000563265674   -0.6600
10     C10     0.0720   -5.7182    1.2708 C.3      1 ZINC000563265674    0.0400
11     C11     0.0955   -6.8789    0.3100 C.2      1 ZINC000563265674    0.5200
12     O12     0.0934   -6.6764   -0.8859 O.2      1 ZINC000563265674   -0.4900
13     N13     0.1188   -8.1420    0.7795 N.am     1 ZINC000563265674   -0.6700
14     C14     0.0239   -9.2205   -0.1079 C.ar     1 ZINC000563265674    0.1400
15     C15    -0.5900   -9.0541   -1.3417 C.ar     1 ZINC000563265674   -0.0300
16     C16    -0.6818  -10.1202   -2.2156 C.ar     1 ZINC000563265674   -0.6400
17     S17    -1.4606   -9.9093   -3.7820 S.o2     1 ZINC000563265674    2.5000
18     C18    -0.1162   -9.4080   -4.8920 C.3      1 ZINC000563265674   -0.6500
19     O19    -1.9274  -11.2084   -4.1191 O.2      1 ZINC000563265674   -0.9300
20     O20    -2.3677   -8.8343   -3.5804 O.2      1 ZINC000563265674   -0.9300
21     C21    -0.1631  -11.3523   -1.8629 C.ar     1 ZINC000563265674   -0.0300
22     C22     0.4490  -11.5224   -0.6344 C.ar     1 ZINC000563265674   -0.1100
23     C23     0.5492  -10.4588    0.2421 C.ar     1 ZINC000563265674   -0.0200
24     Cl24    1.3181  -10.6725    1.7838 Cl       1 ZINC000563265674   -0.0500
25     N25    -0.0165   -0.8065    1.0836 N.2      1 ZINC000563265674   -0.4700
26     H26     0.9574    1.8848    0.0115 H        1 ZINC000563265674    0.0900
27     H27    -0.5868    1.8609   -0.8735 H        1 ZINC000563265674    0.0900
28     H28    -0.5809    1.8508    0.9065 H        1 ZINC000563265674    0.0900
29     H29     1.2571   -2.4640    2.9785 H        1 ZINC000563265674    0.0800
30     H30     1.2910   -4.2415    2.8910 H        1 ZINC000563265674    0.0800
31     H31     2.1645   -3.2739    1.6790 H        1 ZINC000563265674    0.0700
32     H32    -2.1131   -3.3553    1.6727 H        1 ZINC000563265674    0.0700
33     H33    -1.2070   -4.2890    2.8873 H        1 ZINC000563265674    0.0800
34     H34    -1.2410   -2.5115    2.9748 H        1 ZINC000563265674    0.0800
35     H35    -0.7319   -4.4331   -0.1223 H        1 ZINC000563265674    0.3600
36     H36     0.9618   -5.7490    1.8996 H        1 ZINC000563265674    0.1200
37     H37    -0.8178   -5.7828    1.8970 H        1 ZINC000563265674    0.0800
38     H38     0.2014   -8.3038    1.7323 H        1 ZINC000563265674    0.4200
39     H39    -0.9959   -8.0922   -1.6181 H        1 ZINC000563265674    0.1700
40     H40     0.6441  -10.1886   -4.9174 H        1 ZINC000563265674    0.1300
41     H41    -0.5122   -9.2537   -5.8957 H        1 ZINC000563265674    0.1400
42     H42     0.3273   -8.4805   -4.5298 H        1 ZINC000563265674    0.1400
43     H43    -0.2364  -12.1838   -2.5481 H        1 ZINC000563265674    0.1500
44     H44     0.8529  -12.4862   -0.3617 H        1 ZINC000563265674    0.1500
@<TRIPOS>BOND
1     1     2     1
2     1     26    1
3     1     27    1
4     1     28    1
5     2     25    1
6     2     3     2
7     3     4     1
8     4     5     1
9     5     6     1
10    5     25    2
11    6     7     1
12    6     8     1
13    6     9     1
14    7     29    1
15    7     30    1
16    7     31    1
17    8     32    1
18    8     33    1
19    8     34    1
20    9     10    1
21    9     35    1
22    10    11    1
23    10    36    1
24    10    37    1
25    11    12    2
26    11    13    am
27    13    14    1
28    13    38    1
29    14    23    ar
30    14    15    ar
31    15    16    ar
32    15    39    1
33    16    17    1
34    16    21    ar
35    17    18    1
36    17    19    2
37    17    20    2
38    18    40    1
39    18    41    1
40    18    42    1
41    21    22    ar
42    21    43    1
43    22    23    ar
44    22    44    1
45    23    24    1
@<TRIPOS>SUBSTRUCTURE
1   ZINC000563265674 1     RESIDUE    1   A     ZIN   1
@<TRIPOS>MOLECULE
ZINC000284209281
49	51	0	0	0
SMALL
USER_CHARGES
@<TRIPOS>ATOM
1 O1        0.0115     0.0344    -0.3323 O.2    1 <0>      -0.5100
2 C2       -0.0127     1.2163    -0.0583 C.2    1 <0>       0.5100
3 N3        1.1385     1.8786     0.1709 N.am   1 <0>      -0.7000
4 C4        2.4190     1.1717     0.0893 C.3    1 <0>       0.1200
5 C5        3.5596     2.1460     0.3906 C.3    1 <0>      -0.1000
6 C6        4.8768     1.4188     0.3066 C.ar   1 <0>      -0.0400
7 C7        5.4192     0.8015     1.4234 C.ar   1 <0>      -0.1700
8 C8        6.6293     0.1440     1.3084 C.ar   1 <0>       0.1000
9 N9        7.2662     0.1003     0.1546 N.ar   1 <0>      -0.4900
10 C10       6.7804     0.6758    -0.9279 C.ar   1 <0>       0.1000
11 C11       5.5724     1.3462    -0.8905 C.ar   1 <0>      -0.1700
12 C12      -1.3186     1.9389     0.0188 C.2    1 <0>       0.5100
13 O13      -1.3380     3.1426     0.1715 O.2    1 <0>      -0.5200
14 N14      -2.4749     1.2536    -0.0811 N.am   1 <0>      -0.5800
15 C15      -2.4828    -0.2171    -0.0852 C.3    1 <0>       0.0800
16 C16      -3.4890    -0.7014     0.9643 C.3    1 <0>       0.0400
17 N17      -4.7929    -0.0725     0.7147 N.3    1 <0>      -0.5300
18 C18      -5.8270    -0.6392     1.5908 C.3    1 <0>       0.1000
19 C19      -7.1830    -0.1556     1.1453 C.ar   1 <0>       0.1300
20 C20      -7.9429    -0.9391     0.2978 C.ar   1 <0>      -0.1500
21 C21      -9.1895    -0.4852    -0.1058 C.ar   1 <0>      -0.0700
22 C22      -9.6264     0.7451     0.3604 C.ar   1 <0>      -0.1700
23 C23      -8.8108     1.4733     1.2060 C.ar   1 <0>       0.1000
24 N24      -7.6330     1.0079     1.5731 N.ar   1 <0>      -0.4800
25 C25      -4.7180     1.3869     0.8644 C.3    1 <0>       0.0400
26 C26      -3.7627     1.9567    -0.1830 C.3    1 <0>       0.1100
27 H27       1.1191     2.8234     0.3899 H      1 <0>       0.4100
28 H28       2.4329     0.3599     0.8166 H      1 <0>       0.0800
29 H29       2.5453     0.7633    -0.9134 H      1 <0>       0.0800
30 H30       3.5457     2.9577    -0.3368 H      1 <0>       0.0900
31 H31       3.4332     2.5544     1.3933 H      1 <0>       0.0900
32 H32       4.9027     0.8344     2.3714 H      1 <0>       0.1400
33 H33       7.0585    -0.3394     2.1736 H      1 <0>       0.1600
34 H34       7.3310     0.6191    -1.8553 H      1 <0>       0.1600
35 H35       5.1796     1.8152    -1.7805 H      1 <0>       0.1400
36 H36      -2.7782    -0.5790    -1.0700 H      1 <0>       0.0800
37 H37      -1.4885    -0.5894     0.1617 H      1 <0>       0.1400
38 H38      -3.5893    -1.7848     0.8993 H      1 <0>       0.0900
39 H39      -3.1374    -0.4273     1.9590 H      1 <0>       0.0400
40 H40      -5.7932    -1.7273     1.5361 H      1 <0>       0.0900
41 H41      -5.6472    -0.3213     2.6178 H      1 <0>       0.0600
42 H42      -7.5705    -1.8927    -0.0461 H      1 <0>       0.1400
43 H43      -9.8052    -1.0759    -0.7679 H      1 <0>       0.1400
44 H44     -10.5917     1.1299     0.0663 H      1 <0>       0.1400
45 H45      -9.1437     2.4328     1.5733 H      1 <0>       0.1600
46 H46      -5.7096     1.8180     0.7270 H      1 <0>       0.1000
47 H47      -4.3493     1.6320     1.8605 H      1 <0>       0.0400
48 H48      -3.6155     3.0217    -0.0034 H      1 <0>       0.1000
49 H49      -4.1784     1.8045    -1.1790 H      1 <0>       0.0800
@<TRIPOS>BOND
1    1    2 2
2    2    3 am
3    2   12 1
4    3    4 1
5    3   27 1
6    4    5 1
7    4   28 1
8    4   29 1
9    5    6 1
10    5   30 1
11    5   31 1
12    6   11 ar
13    6    7 ar
14    7    8 ar
15    7   32 1
16    8    9 ar
17    8   33 1
18    9   10 ar
19   10   11 ar
20   10   34 1
21   11   35 1
22   12   13 2
23   12   14 am
24   14   26 1
25   14   15 1
26   15   16 1
27   15   36 1
28   15   37 1
29   16   17 1
30   16   38 1
31   16   39 1
32   17   18 1
33   17   25 1
34   18   19 1
35   18   40 1
36   18   41 1
37   19   24 ar
38   19   20 ar
39   20   21 ar
40   20   42 1
41   21   22 ar
42   21   43 1
43   22   23 ar
44   22   44 1
45   23   24 ar
46   23   45 1
47   25   26 1
48   25   46 1
49   25   47 1
50   26   48 1
51   26   49 1
@<TRIPOS>MOLECULE
ZINC000542980334
44	46	1	0	0
SMALL
USER_CHARGES
@<TRIPOS>ATOM
1      O1     -0.0511   -0.0036   -0.0009 O.2      1 ZINC000542980334   -0.5800
2      C2     -0.0144    1.2117    0.0087 C.2      1 ZINC000542980334    0.7100
3      N3      1.1725    1.8501    0.0057 N.am     1 ZINC000542980334   -0.7400
4      C4      2.4170    1.0833    0.1030 C.3      1 ZINC000542980334    0.1800
5      C5      3.5918    2.0269    0.0783 C.ar     1 ZINC000542980334   -0.1400
6      C6      4.1699    2.3814   -1.1283 C.ar     1 ZINC000542980334    0.1300
7      F7      3.6814    1.8817   -2.2846 F        1 ZINC000542980334   -0.1200
8      C8      5.2491    3.2490   -1.1497 C.ar     1 ZINC000542980334   -0.1500
9      C9      5.7482    3.7603    0.0331 C.ar     1 ZINC000542980334   -0.0700
10     C10     5.1708    3.4062    1.2382 C.ar     1 ZINC000542980334   -0.1200
11     C11     4.0893    2.5437    1.2611 C.ar     1 ZINC000542980334    0.0100
12     Cl12    3.3646    2.1002    2.7749 Cl       1 ZINC000542980334   -0.0400
13     N13    -1.1608    1.9204    0.0168 N.am     1 ZINC000542980334   -0.6300
14     C14    -1.1358    3.3856   -0.0888 C.3      1 ZINC000542980334    0.1100
15     C15    -1.9278    3.9778    1.0811 C.3      1 ZINC000542980334   -0.1300
16     C16    -3.3334    3.3728    1.0985 C.3      1 ZINC000542980334   -0.1300
17     C17    -3.2364    1.8586    1.2982 C.3      1 ZINC000542980334    0.1400
18     H18    -2.7169    1.6474    2.2329 H        1 ZINC000542980334    0.1100
19     N19    -4.5834    1.2846    1.3470 N.pl3    1 ZINC000542980334   -0.3400
20     C20    -5.3276    0.9144    0.2838 C.2      1 ZINC000542980334    0.0600
21     C21    -6.5034    0.4340    0.7506 C.2      1 ZINC000542980334   -0.2300
22     C22    -6.4768    0.5133    2.1468 C.2      1 ZINC000542980334   -0.0200
23     C23    -7.5823    0.0855    3.0773 C.3      1 ZINC000542980334    0.5600
24     F24    -7.4059   -1.2583    3.4242 F        1 ZINC000542980334   -0.1700
25     F25    -7.5503    0.8735    4.2329 F        1 ZINC000542980334   -0.1700
26     F26    -8.8169    0.2441    2.4388 F        1 ZINC000542980334   -0.1600
27     N27    -5.3240    1.0174    2.5056 N.2      1 ZINC000542980334   -0.2300
28     C28    -2.4595    1.2420    0.1251 C.3      1 ZINC000542980334    0.1300
29     H29     1.2028    2.8174   -0.0608 H        1 ZINC000542980334    0.4000
30     H30     2.4240    0.5188    1.0354 H        1 ZINC000542980334    0.0900
31     H31     2.4863    0.3947   -0.7391 H        1 ZINC000542980334    0.0900
32     H32     5.7009    3.5258   -2.0908 H        1 ZINC000542980334    0.1500
33     H33     6.5900    4.4366    0.0160 H        1 ZINC000542980334    0.1500
34     H34     5.5618    3.8060    2.1621 H        1 ZINC000542980334    0.1500
35     H35    -0.1049    3.7374   -0.0475 H        1 ZINC000542980334    0.0800
36     H36    -1.5911    3.6920   -1.0306 H        1 ZINC000542980334    0.0800
37     H37    -1.4206    3.7467    2.0179 H        1 ZINC000542980334    0.0800
38     H38    -1.9985    5.0590    0.9623 H        1 ZINC000542980334    0.0900
39     H39    -3.9072    3.8108    1.9153 H        1 ZINC000542980334    0.0800
40     H40    -3.8310    3.5831    0.1518 H        1 ZINC000542980334    0.0800
41     H41    -5.0370    0.9886   -0.7537 H        1 ZINC000542980334    0.1900
42     H42    -7.3185    0.0566    0.1510 H        1 ZINC000542980334    0.1600
43     H43    -3.0249    1.3742   -0.7974 H        1 ZINC000542980334    0.0800
44     H44    -2.3011    0.1795    0.3099 H        1 ZINC000542980334    0.1100
@<TRIPOS>BOND
1     1     2     2
2     2     3     am
3     2     13    am
4     3     4     1
5     3     29    1
6     4     5     1
7     4     30    1
8     4     31    1
9     5     11    ar
10    5     6     ar
11    6     7     1
12    6     8     ar
13    8     9     ar
14    8     32    1
15    9     10    ar
16    9     33    1
17    10    11    ar
18    10    34    1
19    11    12    1
20    13    28    1
21    13    14    1
22    14    15    1
23    14    35    1
24    14    36    1
25    15    16    1
26    15    37    1
27    15    38    1
28    16    17    1
29    16    39    1
30    16    40    1
31    17    18    1
32    17    19    1
33    17    28    1
34    19    27    1
35    19    20    1
36    20    21    2
37    20    41    1
38    21    22    1
39    21    42    1
40    22    23    1
41    22    27    2
42    23    24    1
43    23    25    1
44    23    26    1
45    28    43    1
46    28    44    1
@<TRIPOS>SUBSTRUCTURE
1   ZINC000542980334 1     RESIDUE    1   A     ZIN   1
@<TRIPOS>MOLECULE
ZINC001340390804
57	60	1	0	0
SMALL
USER_CHARGES
@<TRIPOS>ATOM
1      C1      1.2804    2.1971   -0.0466 C.2      1 ZINC001340390804   -0.1300
2      C2      1.1108    0.9523   -0.4177 C.2      1 ZINC001340390804   -0.2000
3      C3      2.2521   -0.0265   -0.3163 C.3      1 ZINC001340390804    0.1400
4      N4      1.8291   -1.1907    0.4660 N.pl3    1 ZINC001340390804   -0.4700
5      C5      1.8499   -1.3227    1.8268 C.2      1 ZINC001340390804    0.1700
6      C6      2.3173   -0.2877    2.8175 C.3      1 ZINC001340390804   -0.0500
7      C7      1.1150    0.5089    3.3282 C.3      1 ZINC001340390804   -0.0900
8      H8      0.3571    0.5690    2.5472 H        1 ZINC001340390804    0.1000
9      C9      0.5281   -0.1803    4.5624 C.3      1 ZINC001340390804   -0.1100
10     C10     1.6254   -0.8193    5.3941 C.3      1 ZINC001340390804   -0.1300
11     C11     2.5689    0.1812    6.0364 C.3      1 ZINC001340390804   -0.1400
12     C12     3.3955    0.9101    4.9753 C.3      1 ZINC001340390804    0.0800
13     N13     2.6291    2.0725    4.4976 N.am     1 ZINC001340390804   -0.7200
14     C14     1.5571    1.9041    3.7167 C.2      1 ZINC001340390804    0.5200
15     O15     0.9368    2.8700    3.3252 O.2      1 ZINC001340390804   -0.5400
16     N16     1.3901   -2.5089    2.1082 N.2      1 ZINC001340390804   -0.2700
17     N17     1.0825   -3.1305    1.0261 N.2      1 ZINC001340390804   -0.3100
18     C18     1.3269   -2.3660   -0.0120 C.2      1 ZINC001340390804    0.3500
19     N19     1.1218   -2.6936   -1.3428 N.3      1 ZINC001340390804   -0.4300
20     C20     0.0827   -1.8235   -1.9512 C.3      1 ZINC001340390804    0.0300
21     C21    -0.4133   -2.6124   -3.1820 C.3      1 ZINC001340390804   -0.1200
22     C22    -0.0923   -4.0883   -2.8682 C.3      1 ZINC001340390804   -0.1200
23     C23     0.5707   -4.0669   -1.4742 C.3      1 ZINC001340390804    0.0900
24     H24    -0.1708   -4.2549   -0.6977 H        1 ZINC001340390804    0.0800
25     C25     1.6930   -5.1042   -1.4011 C.3      1 ZINC001340390804   -0.1000
26     C26     2.0575   -5.5173    0.0346 C.3      1 ZINC001340390804   -0.1200
27     C27     2.1902   -6.9544   -0.4964 C.3      1 ZINC001340390804   -0.1500
28     C28     1.2107   -6.5494   -1.6105 C.3      1 ZINC001340390804   -0.1300
29     H29     2.2136    2.5045    0.4017 H        1 ZINC001340390804    0.1000
30     H30     0.4887    2.9169   -0.1930 H        1 ZINC001340390804    0.1100
31     H31     0.1529    0.6274   -0.7964 H        1 ZINC001340390804    0.1200
32     H32     2.5454   -0.3475   -1.3158 H        1 ZINC001340390804    0.1100
33     H33     3.0992    0.4527    0.1746 H        1 ZINC001340390804    0.1000
34     H34     2.8078   -0.7826    3.6557 H        1 ZINC001340390804    0.1300
35     H35     3.0213    0.3881    2.3320 H        1 ZINC001340390804    0.0800
36     H36     0.0014    0.5567    5.1686 H        1 ZINC001340390804    0.0700
37     H37    -0.1747   -0.9500    4.2435 H        1 ZINC001340390804    0.0800
38     H38     1.1633   -1.4161    6.1804 H        1 ZINC001340390804    0.0700
39     H39     2.2059   -1.4831    4.7534 H        1 ZINC001340390804    0.0800
40     H40     1.9878    0.9102    6.6012 H        1 ZINC001340390804    0.0700
41     H41     3.2405   -0.3442    6.7154 H        1 ZINC001340390804    0.0800
42     H42     4.3360    1.2465    5.4118 H        1 ZINC001340390804    0.0900
43     H43     3.5964    0.2369    4.1420 H        1 ZINC001340390804    0.1000
44     H44     2.9049    2.9678    4.7489 H        1 ZINC001340390804    0.4000
45     H45    -0.7352   -1.6604   -1.2494 H        1 ZINC001340390804    0.0500
46     H46     0.5162   -0.8720   -2.2590 H        1 ZINC001340390804    0.0900
47     H47    -1.4873   -2.4776   -3.3105 H        1 ZINC001340390804    0.0800
48     H48     0.1191   -2.2913   -4.0773 H        1 ZINC001340390804    0.0800
49     H49    -1.0087   -4.6779   -2.8426 H        1 ZINC001340390804    0.0800
50     H50     0.5977   -4.4915   -3.6094 H        1 ZINC001340390804    0.0800
51     H51     2.5552   -4.8387   -2.0127 H        1 ZINC001340390804    0.0900
52     H52     2.9981   -5.0929    0.3856 H        1 ZINC001340390804    0.0500
53     H53     1.2421   -5.3883    0.7464 H        1 ZINC001340390804    0.1000
54     H54     3.1893   -7.1952   -0.8596 H        1 ZINC001340390804    0.0700
55     H55     1.7920   -7.7090    0.1820 H        1 ZINC001340390804    0.0700
56     H56     0.1638   -6.7026   -1.3485 H        1 ZINC001340390804    0.0800
57     H57     1.4677   -6.9582   -2.5877 H        1 ZINC001340390804    0.0700
@<TRIPOS>BOND
1     1     2     2
2     1     29    1
3     1     30    1
4     2     3     1
5     2     31    1
6     3     4     1
7     3     32    1
8     3     33    1
9     4     18    1
10    4     5     1
11    5     6     1
12    5     16    2
13    6     7     1
14    6     34    1
15    6     35    1
16    7     8     1
17    7     14    1
18    7     9     1
19    9     10    1
20    9     36    1
21    9     37    1
22    10    11    1
23    10    38    1
24    10    39    1
25    11    12    1
26    11    40    1
27    11    41    1
28    12    13    1
29    12    42    1
30    12    43    1
31    13    14    am
32    13    44    1
33    14    15    2
34    16    17    1
35    17    18    2
36    18    19    1
37    19    23    1
38    19    20    1
39    20    21    1
40    20    45    1
41    20    46    1
42    21    22    1
43    21    47    1
44    21    48    1
45    22    23    1
46    22    49    1
47    22    50    1
48    23    24    1
49    23    25    1
50    25    28    1
51    25    26    1
52    25    51    1
53    26    27    1
54    26    52    1
55    26    53    1
56    27    28    1
57    27    54    1
58    27    55    1
59    28    56    1
60    28    57    1
@<TRIPOS>SUBSTRUCTURE
1   ZINC001340390804 1     RESIDUE    1   A     ZIN   1
@<TRIPOS>MOLECULE
ZINC000919225759
40	41	1	0	0
SMALL
USER_CHARGES
@<TRIPOS>ATOM
1      C1     -1.7145    0.8861    0.3886 C.3      1 ZINC000919225759   -0.1500
2      C2     -0.8080   -0.3003    0.1837 C.ar     1 ZINC000919225759    0.0900
3      C3     -0.8891   -1.0479   -0.9926 C.ar     1 ZINC000919225759   -0.1200
4      C4     -1.8631   -0.6792   -2.0403 C.2      1 ZINC000919225759    0.5200
5      O5     -2.5170    0.3385   -1.9307 O.2      1 ZINC000919225759   -0.4700
6      O6     -2.0260   -1.4718   -3.1174 O.3      1 ZINC000919225759   -0.3400
7      C7     -3.0003   -1.0474   -4.1068 C.3      1 ZINC000919225759    0.1400
8      H8     -3.7936   -0.4828   -3.6167 H        1 ZINC000919225759    0.1100
9      C9     -2.3152   -0.1631   -5.1506 C.3      1 ZINC000919225759   -0.1700
10     C10    -3.5897   -2.2583   -4.7831 C.ar     1 ZINC000919225759   -0.1000
11     C11    -2.8049   -3.3730   -5.0109 C.ar     1 ZINC000919225759   -0.0400
12     C12    -3.3456   -4.4839   -5.6314 C.ar     1 ZINC000919225759   -0.1100
13     C13    -4.6709   -4.4800   -6.0234 C.ar     1 ZINC000919225759   -0.0500
14     C14    -5.4562   -3.3653   -5.7946 C.ar     1 ZINC000919225759   -0.0400
15     N15    -6.8754   -3.3609   -6.2149 N.pl3    1 ZINC000919225759    0.0300
16     O16    -7.3515   -4.3393   -6.7622 O.2      1 ZINC000919225759   -0.1500
17     O17    -7.5672   -2.3789   -6.0134 O.2      1 ZINC000919225759   -0.1500
18     C18    -4.9168   -2.2563   -5.1705 C.ar     1 ZINC000919225759   -0.0400
19     C19    -0.0450   -2.1454   -1.1745 C.ar     1 ZINC000919225759    0.0500
20     C20     0.8623   -2.4837   -0.1924 C.ar     1 ZINC000919225759   -0.0600
21     N21     1.7582   -3.6464   -0.3836 N.pl3    1 ZINC000919225759    0.0300
22     O22     1.6935   -4.3032   -1.4073 O.2      1 ZINC000919225759   -0.1300
23     O23     2.5599   -3.9465    0.4828 O.2      1 ZINC000919225759   -0.1300
24     C24     0.9374   -1.7384    0.9712 C.ar     1 ZINC000919225759    0.0400
25     C25     0.1078   -0.6467    1.1556 C.ar     1 ZINC000919225759   -0.0500
26     N26     0.1956    0.1450    2.4032 N.pl3    1 ZINC000919225759    0.0200
27     O27     0.3977   -0.4140    3.4663 O.2      1 ZINC000919225759   -0.1300
28     O28     0.0657    1.3555    2.3667 O.2      1 ZINC000919225759   -0.1200
29     H29    -1.2865    1.7595   -0.1034 H        1 ZINC000919225759    0.1200
30     H30    -2.6945    0.6725   -0.0381 H        1 ZINC000919225759    0.1200
31     H31    -1.8180    1.0842    1.4554 H        1 ZINC000919225759    0.0900
32     H32    -1.5220   -0.7276   -5.6407 H        1 ZINC000919225759    0.0700
33     H33    -3.0466    0.1555   -5.8934 H        1 ZINC000919225759    0.0900
34     H34    -1.8889    0.7127   -4.6615 H        1 ZINC000919225759    0.0700
35     H35    -1.7693   -3.3760   -4.7046 H        1 ZINC000919225759    0.1500
36     H36    -2.7322   -5.3547   -5.8100 H        1 ZINC000919225759    0.1500
37     H37    -5.0931   -5.3476   -6.5087 H        1 ZINC000919225759    0.1600
38     H38    -5.5302   -1.3855   -4.9918 H        1 ZINC000919225759    0.1600
39     H39    -0.1028   -2.7282   -2.0819 H        1 ZINC000919225759    0.1900
40     H40     1.6495   -2.0079    1.7372 H        1 ZINC000919225759    0.1900
@<TRIPOS>BOND
1     1     2     1
2     1     29    1
3     1     30    1
4     1     31    1
5     2     25    ar
6     2     3     ar
7     3     4     1
8     3     19    ar
9     4     5     2
10    4     6     1
11    6     7     1
12    7     8     1
13    7     9     1
14    7     10    1
15    9     32    1
16    9     33    1
17    9     34    1
18    10    18    ar
19    10    11    ar
20    11    12    ar
21    11    35    1
22    12    13    ar
23    12    36    1
24    13    14    ar
25    13    37    1
26    14    15    1
27    14    18    ar
28    15    16    2
29    15    17    2
30    18    38    1
31    19    20    ar
32    19    39    1
33    20    21    1
34    20    24    ar
35    21    22    2
36    21    23    2
37    24    25    ar
38    24    40    1
39    25    26    1
40    26    27    2
41    26    28    2
@<TRIPOS>SUBSTRUCTURE
1   ZINC000919225759 1     RESIDUE    1   A     ZIN   1
@<TRIPOS>MOLECULE
ZINC000460972051
60	61	1	0	0
SMALL
USER_CHARGES
@<TRIPOS>ATOM
1      C1     -1.1841    0.5030   -0.0284 C.3      1 ZINC000460972051   -0.1800
2      C2     -1.6446   -0.9446   -0.2111 C.3      1 ZINC000460972051    0.1000
3      N3     -3.1001   -0.9770   -0.3748 N.am     1 ZINC000460972051   -0.6200
4      C4     -3.6420   -0.8867   -1.6055 C.2      1 ZINC000460972051    0.7100
5      O5     -4.8500   -0.9136   -1.7413 O.2      1 ZINC000460972051   -0.5800
6      N6     -2.8449   -0.7666   -2.6856 N.am     1 ZINC000460972051   -0.7400
7      C7     -3.4339   -0.6685   -4.0234 C.3      1 ZINC000460972051    0.2000
8      H8     -4.3692   -0.1113   -3.9686 H        1 ZINC000460972051    0.1100
9      C9     -2.4622    0.0566   -4.9566 C.3      1 ZINC000460972051    0.1100
10     N10    -2.1066    1.3548   -4.3782 N.am     1 ZINC000460972051   -1.1200
11     S11    -0.8222    2.2070   -4.9834 S.o2     1 ZINC000460972051    2.7000
12     O12    -0.7408    3.4044   -4.2226 O.2      1 ZINC000460972051   -0.9500
13     O13     0.2528    1.2848   -5.0985 O.2      1 ZINC000460972051   -0.9600
14     C14    -1.2427    2.6883   -6.6254 C.ar     1 ZINC000460972051   -0.6900
15     C15    -0.5020    2.2198   -7.6940 C.ar     1 ZINC000460972051   -0.0100
16     C16    -0.8320    2.5975   -8.9824 C.ar     1 ZINC000460972051   -0.1500
17     C17    -1.9029    3.4432   -9.2018 C.ar     1 ZINC000460972051   -0.0200
18     C18    -2.2623    3.8553  -10.6061 C.3      1 ZINC000460972051   -0.1300
19     C19    -2.6448    3.9108   -8.1329 C.ar     1 ZINC000460972051   -0.1500
20     C20    -2.3172    3.5302   -6.8452 C.ar     1 ZINC000460972051    0.0300
21     C21    -3.1258    4.0398   -5.6801 C.3      1 ZINC000460972051   -0.1700
22     C22    -3.7040   -2.0521   -4.5561 C.ar     1 ZINC000460972051   -0.1000
23     C23    -2.7939   -3.0684   -4.3330 C.ar     1 ZINC000460972051   -0.1000
24     C24    -3.0416   -4.3376   -4.8216 C.ar     1 ZINC000460972051   -0.1200
25     C25    -4.1996   -4.5906   -5.5329 C.ar     1 ZINC000460972051   -0.1200
26     C26    -5.1101   -3.5745   -5.7552 C.ar     1 ZINC000460972051   -0.1200
27     C27    -4.8644   -2.3063   -5.2629 C.ar     1 ZINC000460972051   -0.1000
28     C28    -3.9665   -1.1075    0.7993 C.3      1 ZINC000460972051    0.1500
29     C29    -3.6471   -2.4155    1.5260 C.3      1 ZINC000460972051   -0.1600
30     C30    -3.7270    0.0722    1.7437 C.3      1 ZINC000460972051   -0.1600
31     H31    -0.1012    0.5271    0.0933 H        1 ZINC000460972051    0.0700
32     H32    -1.4642    1.0867   -0.9053 H        1 ZINC000460972051    0.0600
33     H33    -1.6588    0.9263    0.8567 H        1 ZINC000460972051    0.0700
34     H34    -1.1699   -1.3680   -1.0963 H        1 ZINC000460972051    0.0700
35     H35    -1.3645   -1.5284    0.6658 H        1 ZINC000460972051    0.0900
36     H36    -1.8812   -0.7452   -2.5772 H        1 ZINC000460972051    0.4000
37     H37    -1.5615   -0.5445   -5.0814 H        1 ZINC000460972051    0.0900
38     H38    -2.9352    0.2084   -5.9268 H        1 ZINC000460972051    0.0900
39     H39    -2.6236    1.7152   -3.6408 H        1 ZINC000460972051    0.4200
40     H40     0.3349    1.5590   -7.5226 H        1 ZINC000460972051    0.1400
41     H41    -0.2527    2.2320   -9.8174 H        1 ZINC000460972051    0.1300
42     H42    -2.9741    3.1427  -11.0229 H        1 ZINC000460972051    0.0800
43     H43    -2.7101    4.8489  -10.5898 H        1 ZINC000460972051    0.0700
44     H44    -1.3627    3.8723  -11.2212 H        1 ZINC000460972051    0.0700
45     H45    -3.4818    4.5713   -8.3043 H        1 ZINC000460972051    0.1300
46     H46    -3.8800    3.3006   -5.4103 H        1 ZINC000460972051    0.0900
47     H47    -2.4672    4.2142   -4.8293 H        1 ZINC000460972051    0.1000
48     H48    -3.6152    4.9733   -5.9581 H        1 ZINC000460972051    0.0900
49     H49    -1.8892   -2.8708   -3.7773 H        1 ZINC000460972051    0.1200
50     H50    -2.3302   -5.1314   -4.6480 H        1 ZINC000460972051    0.1200
51     H51    -4.3928   -5.5820   -5.9153 H        1 ZINC000460972051    0.1200
52     H52    -6.0147   -3.7720   -6.3112 H        1 ZINC000460972051    0.1200
53     H53    -5.5758   -1.5125   -5.4366 H        1 ZINC000460972051    0.1200
54     H54    -5.0094   -1.1133    0.4824 H        1 ZINC000460972051    0.1000
55     H55    -3.8177   -3.2560    0.8533 H        1 ZINC000460972051    0.0600
56     H56    -2.6042   -2.4098    1.8429 H        1 ZINC000460972051    0.0600
57     H57    -4.2917   -2.5126    2.3996 H        1 ZINC000460972051    0.0700
58     H58    -3.9545    1.0040    1.2260 H        1 ZINC000460972051    0.0600
59     H59    -4.3716   -0.0249    2.6172 H        1 ZINC000460972051    0.0700
60     H60    -2.6841    0.0779    2.0606 H        1 ZINC000460972051    0.0600
@<TRIPOS>BOND
1     1     2     1
2     1     31    1
3     1     32    1
4     1     33    1
5     2     3     1
6     2     34    1
7     2     35    1
8     3     4     am
9     3     28    1
10    4     5     2
11    4     6     am
12    6     7     1
13    6     36    1
14    7     8     1
15    7     9     1
16    7     22    1
17    9     10    1
18    9     37    1
19    9     38    1
20    10    11    am
21    10    39    1
22    11    12    2
23    11    13    2
24    11    14    1
25    14    20    ar
26    14    15    ar
27    15    16    ar
28    15    40    1
29    16    17    ar
30    16    41    1
31    17    18    1
32    17    19    ar
33    18    42    1
34    18    43    1
35    18    44    1
36    19    20    ar
37    19    45    1
38    20    21    1
39    21    46    1
40    21    47    1
41    21    48    1
42    22    27    ar
43    22    23    ar
44    23    24    ar
45    23    49    1
46    24    25    ar
47    24    50    1
48    25    26    ar
49    25    51    1
50    26    27    ar
51    26    52    1
52    27    53    1
53    28    29    1
54    28    30    1
55    28    54    1
56    29    55    1
57    29    56    1
58    29    57    1
59    30    58    1
60    30    59    1
61    30    60    1
@<TRIPOS>SUBSTRUCTURE
1   ZINC000460972051 1     RESIDUE    1   A     ZIN   1
@<TRIPOS>MOLECULE
ZINC001169875900
47	48	1	0	0
SMALL
USER_CHARGES
@<TRIPOS>ATOM
1      C1     -6.3271    1.7723   -1.1655 C.3      1 ZINC001169875900   -0.1500
2      C2     -4.8208    1.5094   -1.2186 C.3      1 ZINC001169875900   -0.1300
3      C3     -4.2013    1.8149    0.1466 C.3      1 ZINC001169875900    0.0700
4      O4     -2.7945    1.5693    0.0970 O.3      1 ZINC001169875900   -0.3100
5      C5     -2.0892    1.7930    1.2355 C.ar     1 ZINC001169875900    0.2700
6      N6     -2.7165    2.2137    2.3204 N.ar     1 ZINC001169875900   -0.5000
7      C7     -2.0715    2.4501    3.4472 C.ar     1 ZINC001169875900    0.0600
8      C8     -0.7010    2.2572    3.5331 C.ar     1 ZINC001169875900    0.1400
9      N9     -0.0231    2.5104    4.7314 N.pl3    1 ZINC001169875900   -0.7400
10     C10    -0.7619    2.9818    5.9053 C.3      1 ZINC001169875900    0.1800
11     C11     0.1929    3.1762    7.0550 C.ar     1 ZINC001169875900    0.1000
12     C12     0.7272    4.4322    7.2947 C.ar     1 ZINC001169875900   -0.1200
13     C13     1.6051    4.6066    8.3533 C.ar     1 ZINC001169875900   -0.0800
14     C14     1.9188    3.5093    9.1395 C.ar     1 ZINC001169875900   -0.1000
15     C15     1.3440    2.2757    8.8402 C.ar     1 ZINC001169875900    0.0900
16     C16     1.6689    1.0935    9.6705 C.2      1 ZINC001169875900    0.5200
17     O17     2.4333    1.2014   10.6078 O.2      1 ZINC001169875900   -0.5000
18     O18     1.1165   -0.1014    9.3862 O.3      1 ZINC001169875900   -0.3300
19     C19     1.4802   -1.2162   10.2424 C.3      1 ZINC001169875900    0.0600
20     C20     0.7598   -2.4799    9.7679 C.3      1 ZINC001169875900   -0.1500
21     N21     0.5035    2.1528    7.8201 N.ar     1 ZINC001169875900   -0.4200
22     C22    -0.0070    1.8085    2.4107 C.ar     1 ZINC001169875900   -0.1200
23     C23    -0.7181    1.5718    1.2479 C.ar     1 ZINC001169875900   -0.1000
24     C24    -0.0127    1.0858    0.0080 C.3      1 ZINC001169875900   -0.1000
25     H25    -6.5048    2.8173   -0.9115 H        1 ZINC001169875900    0.0600
26     H26    -6.7684    1.5547   -2.1381 H        1 ZINC001169875900    0.0600
27     H27    -6.7812    1.1323   -0.4091 H        1 ZINC001169875900    0.0600
28     H28    -4.3667    2.1495   -1.9751 H        1 ZINC001169875900    0.0700
29     H29    -4.6431    0.4644   -1.4726 H        1 ZINC001169875900    0.0700
30     H30    -4.6554    1.1748    0.9031 H        1 ZINC001169875900    0.0600
31     H31    -4.3790    2.8599    0.4006 H        1 ZINC001169875900    0.0600
32     H32    -2.6171    2.7980    4.3119 H        1 ZINC001169875900    0.1500
33     H33     0.9357    2.3737    4.7844 H        1 ZINC001169875900    0.4000
34     H34    -1.2479    3.9293    5.6725 H        1 ZINC001169875900    0.0800
35     H35    -1.5162    2.2445    6.1802 H        1 ZINC001169875900    0.0800
36     H36     0.4624    5.2670    6.6627 H        1 ZINC001169875900    0.1500
37     H37     2.0345    5.5756    8.5607 H        1 ZINC001169875900    0.1500
38     H38     2.5994    3.6088    9.9722 H        1 ZINC001169875900    0.1500
39     H39     2.5578   -1.3733   10.1962 H        1 ZINC001169875900    0.0700
40     H40     1.1889   -0.9958   11.2693 H        1 ZINC001169875900    0.0700
41     H41    -0.3178   -2.3228    9.8141 H        1 ZINC001169875900    0.0700
42     H42     1.0512   -2.7003    8.7410 H        1 ZINC001169875900    0.0700
43     H43     1.0329   -3.3168   10.4107 H        1 ZINC001169875900    0.0800
44     H44     1.0606    1.6496    2.4478 H        1 ZINC001169875900    0.1400
45     H45     0.0021   -0.0041    0.0020 H        1 ZINC001169875900    0.0700
46     H46     1.0099    1.4631    0.0003 H        1 ZINC001169875900    0.0700
47     H47    -0.5399    1.4469   -0.8751 H        1 ZINC001169875900    0.0700
@<TRIPOS>BOND
1     1     2     1
2     1     25    1
3     1     26    1
4     1     27    1
5     2     3     1
6     2     28    1
7     2     29    1
8     3     4     1
9     3     30    1
10    3     31    1
11    4     5     1
12    5     23    ar
13    5     6     ar
14    6     7     ar
15    7     8     ar
16    7     32    1
17    8     9     1
18    8     22    ar
19    9     10    1
20    9     33    1
21    10    11    1
22    10    34    1
23    10    35    1
24    11    21    ar
25    11    12    ar
26    12    13    ar
27    12    36    1
28    13    14    ar
29    13    37    1
30    14    15    ar
31    14    38    1
32    15    16    1
33    15    21    ar
34    16    17    2
35    16    18    1
36    18    19    1
37    19    20    1
38    19    39    1
39    19    40    1
40    20    41    1
41    20    42    1
42    20    43    1
43    22    23    ar
44    22    44    1
45    23    24    1
46    24    45    1
47    24    46    1
48    24    47    1
@<TRIPOS>SUBSTRUCTURE
1   ZINC001169875900 1     RESIDUE    1   A     ZIN   1
@<TRIPOS>MOLECULE
ZINC000523878927
56	58	1	0	0
SMALL
USER_CHARGES
@<TRIPOS>ATOM
1      C1     -0.0493    1.5314    0.0107 C.3      1 ZINC000523878927   -0.1500
2      C2     -0.0384    0.0015    0.0014 C.3      1 ZINC000523878927   -0.0900
3      H3      0.4664   -0.3528   -0.8973 H        1 ZINC000523878927    0.0700
4      C4     -1.4772   -0.5188    0.0168 C.3      1 ZINC000523878927   -0.1200
5      C5     -2.1858   -0.0215    1.2783 C.3      1 ZINC000523878927   -0.1200
6      C6     -1.4449   -0.5338    2.5151 C.3      1 ZINC000523878927   -0.1100
7      C7     -0.0062   -0.0135    2.4996 C.3      1 ZINC000523878927   -0.1000
8      H8     -0.0139    1.0764    2.5063 H        1 ZINC000523878927    0.0800
9      C9      0.7347   -0.5259    3.7363 C.3      1 ZINC000523878927    0.1400
10     N10     0.1285    0.0467    4.9409 N.am     1 ZINC000523878927   -0.7400
11     C11     0.6199   -0.2658    6.1563 C.2      1 ZINC000523878927    0.7200
12     O12     1.5664   -1.0228    6.2531 O.2      1 ZINC000523878927   -0.5800
13     N13     0.0621    0.2609    7.2644 N.am     1 ZINC000523878927   -0.6400
14     C14    -1.0881    1.1827    7.2924 C.3      1 ZINC000523878927    0.1000
15     C15    -1.7110    0.9970    8.6985 C.3      1 ZINC000523878927   -0.1400
16     C16    -0.4465    0.7992    9.5757 C.3      1 ZINC000523878927    0.1500
17     H17    -0.0096    1.7608    9.8448 H        1 ZINC000523878927    0.1100
18     N18    -0.7650    0.0225   10.7764 N.am     1 ZINC000523878927   -0.7300
19     C19    -0.0057    0.1502   11.8826 C.2      1 ZINC000523878927    0.7100
20     O20     0.9435    0.9101   11.8841 O.2      1 ZINC000523878927   -0.5700
21     N21    -0.2987   -0.5643   12.9872 N.am     1 ZINC000523878927   -0.6800
22     C22     0.5452   -0.5055   14.1035 C.ar     1 ZINC000523878927    0.1500
23     C23     0.7440   -1.6358   14.8849 C.ar     1 ZINC000523878927   -0.1200
24     C24     1.5769   -1.5759   15.9850 C.ar     1 ZINC000523878927   -0.1300
25     C25     2.2131   -0.3895   16.3091 C.ar     1 ZINC000523878927    0.0800
26     F26     3.0271   -0.3328   17.3858 F        1 ZINC000523878927   -0.1400
27     C27     2.0165    0.7387   15.5308 C.ar     1 ZINC000523878927   -0.1300
28     C28     1.1885    0.6816   14.4268 C.ar     1 ZINC000523878927   -0.0900
29     C29     0.4960    0.0064    8.6459 C.3      1 ZINC000523878927    0.1200
30     C30     0.7025   -0.5108    1.2381 C.3      1 ZINC000523878927   -0.1100
31     H31     0.9757    1.9021   -0.0003 H        1 ZINC000523878927    0.0500
32     H32    -0.5771    1.8964   -0.8703 H        1 ZINC000523878927    0.0500
33     H33    -0.5541    1.8857    0.9094 H        1 ZINC000523878927    0.0600
34     H34    -2.0050   -0.1538   -0.8642 H        1 ZINC000523878927    0.0600
35     H35    -1.4694   -1.6088    0.0102 H        1 ZINC000523878927    0.0600
36     H36    -2.1935    1.0684    1.2850 H        1 ZINC000523878927    0.0700
37     H37    -3.2108   -0.3922    1.2893 H        1 ZINC000523878927    0.0600
38     H38    -1.9498   -0.1795    3.4138 H        1 ZINC000523878927    0.0600
39     H39    -1.4372   -1.6238    2.5084 H        1 ZINC000523878927    0.0600
40     H40     0.6661   -1.6129    3.7766 H        1 ZINC000523878927    0.0700
41     H41     1.7823   -0.2297    3.6809 H        1 ZINC000523878927    0.0700
42     H42    -0.6266    0.6506    4.8636 H        1 ZINC000523878927    0.3900
43     H43    -0.7532    2.2113    7.1586 H        1 ZINC000523878927    0.0800
44     H44    -1.8085    0.9139    6.5198 H        1 ZINC000523878927    0.0800
45     H45    -2.2619    1.8871    9.0024 H        1 ZINC000523878927    0.1000
46     H46    -2.3499    0.1145    8.7294 H        1 ZINC000523878927    0.0800
47     H47    -1.5222   -0.5836   10.7752 H        1 ZINC000523878927    0.4000
48     H48    -1.0940   -1.1192   13.0090 H        1 ZINC000523878927    0.4100
49     H49     0.2473   -2.5612   14.6328 H        1 ZINC000523878927    0.1400
50     H50     1.7318   -2.4549   16.5931 H        1 ZINC000523878927    0.1400
51     H51     2.5137    1.6632   15.7852 H        1 ZINC000523878927    0.1400
52     H52     1.0357    1.5617   13.8198 H        1 ZINC000523878927    0.1500
53     H53     0.4291   -1.0581    8.8706 H        1 ZINC000523878927    0.0700
54     H54     1.5217    0.3512    8.7765 H        1 ZINC000523878927    0.0800
55     H55     0.7102   -1.6008    1.2315 H        1 ZINC000523878927    0.0700
56     H56     1.7275   -0.1402    1.2271 H        1 ZINC000523878927    0.0700
@<TRIPOS>BOND
1     1     2     1
2     1     31    1
3     1     32    1
4     1     33    1
5     2     3     1
6     2     30    1
7     2     4     1
8     4     5     1
9     4     34    1
10    4     35    1
11    5     6     1
12    5     36    1
13    5     37    1
14    6     7     1
15    6     38    1
16    6     39    1
17    7     8     1
18    7     9     1
19    7     30    1
20    9     10    1
21    9     40    1
22    9     41    1
23    10    11    am
24    10    42    1
25    11    12    2
26    11    13    am
27    13    29    1
28    13    14    1
29    14    15    1
30    14    43    1
31    14    44    1
32    15    16    1
33    15    45    1
34    15    46    1
35    16    17    1
36    16    18    1
37    16    29    1
38    18    19    am
39    18    47    1
40    19    20    2
41    19    21    am
42    21    22    1
43    21    48    1
44    22    28    ar
45    22    23    ar
46    23    24    ar
47    23    49    1
48    24    25    ar
49    24    50    1
50    25    26    1
51    25    27    ar
52    27    28    ar
53    27    51    1
54    28    52    1
55    29    53    1
56    29    54    1
57    30    55    1
58    30    56    1
@<TRIPOS>SUBSTRUCTURE
1   ZINC000523878927 1     RESIDUE    1   A     ZIN   1
@<TRIPOS>MOLECULE
ZINC000572148596
47	50	1	0	0
SMALL
USER_CHARGES
@<TRIPOS>ATOM
1      C1     -0.0187    1.5258    0.0104 C.3      1 ZINC000572148596   -0.1400
2      C2      0.0021   -0.0041    0.0020 C.3      1 ZINC000572148596    0.0800
3      H3     -1.0205   -0.3814    0.0098 H        1 ZINC000572148596    0.1200
4      C4      0.7074   -0.4901   -1.2379 C.2      1 ZINC000572148596    0.1800
5      N5      1.9393   -0.2373   -1.5692 N.2      1 ZINC000572148596   -0.3500
6      O6      2.2136   -0.7704   -2.6235 O.3      1 ZINC000572148596    0.0900
7      C7      1.1447   -1.4393   -3.0837 C.2      1 ZINC000572148596    0.2300
8      C8      1.0644   -2.2210   -4.3334 C.ar     1 ZINC000572148596   -0.1200
9      C9      2.1786   -2.3277   -5.1784 C.ar     1 ZINC000572148596   -0.0100
10     C10     2.0589   -3.0631   -6.3276 C.ar     1 ZINC000572148596   -0.1900
11     C11     0.8445   -3.6787   -6.6218 C.ar     1 ZINC000572148596    0.3400
12     N12     0.7200   -4.4242   -7.7840 N.3      1 ZINC000572148596   -0.4700
13     C13     1.0582   -3.6180   -8.9659 C.3      1 ZINC000572148596    0.0300
14     C14     0.9655   -4.4940  -10.2181 C.3      1 ZINC000572148596    0.0900
15     H15     1.1598   -3.8868  -11.1023 H        1 ZINC000572148596    0.1100
16     C16     2.0000   -5.6181  -10.1330 C.3      1 ZINC000572148596   -0.1800
17     O17    -0.3464   -5.0568  -10.3040 O.3      1 ZINC000572148596   -0.3700
18     C18    -0.7086   -5.8488   -9.1696 C.3      1 ZINC000572148596    0.0800
19     H19    -0.0208   -6.6894   -9.0781 H        1 ZINC000572148596    0.0700
20     C20    -2.1351   -6.3728   -9.3468 C.3      1 ZINC000572148596   -0.1400
21     C21    -0.6328   -4.9865   -7.9068 C.3      1 ZINC000572148596    0.0300
22     N22    -0.1937   -3.5620   -5.8056 N.ar     1 ZINC000572148596   -0.5200
23     C23    -0.1194   -2.8692   -4.6880 C.ar     1 ZINC000572148596    0.1900
24     N24     0.1797   -1.2667   -2.1966 N.2      1 ZINC000572148596   -0.4700
25     C25     0.7309   -0.5033    1.2229 C.2      1 ZINC000572148596    0.0400
26     N26     1.9583   -0.2311    1.5131 N.2      1 ZINC000572148596   -0.4500
27     C27     2.4427   -0.7502    2.6232 C.2      1 ZINC000572148596    0.0400
28     C28     1.5755   -1.5023    3.3077 C.2      1 ZINC000572148596   -0.2500
29     S29     0.0489   -1.5064    2.4279 S.3      1 ZINC000572148596    0.1400
30     H30     1.0039    1.9031    0.0027 H        1 ZINC000572148596    0.0800
31     H31    -0.5459    1.8868   -0.8726 H        1 ZINC000572148596    0.0700
32     H32    -0.5289    1.8773    0.9072 H        1 ZINC000572148596    0.0800
33     H33     3.1097   -1.8408   -4.9288 H        1 ZINC000572148596    0.1500
34     H34     2.8982   -3.1644   -6.9997 H        1 ZINC000572148596    0.1500
35     H35     0.3592   -2.7860   -9.0512 H        1 ZINC000572148596    0.0600
36     H36     2.0730   -3.2329   -8.8655 H        1 ZINC000572148596    0.1000
37     H37     1.8043   -6.2258   -9.2495 H        1 ZINC000572148596    0.0700
38     H38     1.9335   -6.2414  -11.0247 H        1 ZINC000572148596    0.0600
39     H39     2.9992   -5.1879  -10.0640 H        1 ZINC000572148596    0.0700
40     H40    -2.1885   -6.9836  -10.2479 H        1 ZINC000572148596    0.0700
41     H41    -2.4105   -6.9763   -8.4819 H        1 ZINC000572148596    0.0700
42     H42    -2.8226   -5.5317   -9.4367 H        1 ZINC000572148596    0.0600
43     H43    -0.8525   -5.6003   -7.0333 H        1 ZINC000572148596    0.1000
44     H44    -1.3589   -4.1764   -7.9752 H        1 ZINC000572148596    0.0600
45     H45    -0.9843   -2.7943   -4.0455 H        1 ZINC000572148596    0.1700
46     H46     3.4573   -0.5820    2.9528 H        1 ZINC000572148596    0.1800
47     H47     1.7742   -2.0140    4.2378 H        1 ZINC000572148596    0.1800
@<TRIPOS>BOND
1     1     2     1
2     1     30    1
3     1     31    1
4     1     32    1
5     2     3     1
6     2     4     1
7     2     25    1
8     4     24    1
9     4     5     2
10    5     6     1
11    6     7     1
12    7     8     1
13    7     24    2
14    8     23    ar
15    8     9     ar
16    9     10    ar
17    9     33    1
18    10    11    ar
19    10    34    1
20    11    12    1
21    11    22    ar
22    12    21    1
23    12    13    1
24    13    14    1
25    13    35    1
26    13    36    1
27    14    15    1
28    14    16    1
29    14    17    1
30    16    37    1
31    16    38    1
32    16    39    1
33    17    18    1
34    18    19    1
35    18    20    1
36    18    21    1
37    20    40    1
38    20    41    1
39    20    42    1
40    21    43    1
41    21    44    1
42    22    23    ar
43    23    45    1
44    25    29    1
45    25    26    2
46    26    27    1
47    27    28    2
48    27    46    1
49    28    29    1
50    28    47    1
@<TRIPOS>SUBSTRUCTURE
1   ZINC000572148596 1     RESIDUE    1   A     ZIN   1
@<TRIPOS>MOLECULE
ZINC000545381384
61	64	1	0	0
SMALL
USER_CHARGES
@<TRIPOS>ATOM
1      C1     -1.5099   -0.0410   -0.2292 C.3      1 ZINC000545381384   -0.2000
2      C2      0.0021   -0.0041    0.0020 C.3      1 ZINC000545381384    0.0500
3      N3      0.6892   -0.5882   -1.1576 N.3      1 ZINC000545381384   -0.5300
4      C4      0.3037    0.0990   -2.4002 C.3      1 ZINC000545381384    0.0500
5      C5      1.3020   -0.2775   -3.4946 C.3      1 ZINC000545381384   -0.0700
6      C6      1.4501   -1.7786   -3.5625 C.ar     1 ZINC000545381384    0.1800
7      C7      1.0339   -2.5896   -2.5133 C.ar     1 ZINC000545381384   -0.0800
8      C8      0.4107   -2.0239   -1.2650 C.3      1 ZINC000545381384    0.0900
9      C9      1.1892   -3.9705   -2.6061 C.ar     1 ZINC000545381384   -0.0700
10     C10     0.7595   -4.8592   -1.5054 C.2      1 ZINC000545381384    0.5800
11     O11    -0.3722   -5.3026   -1.4888 O.2      1 ZINC000545381384   -0.4800
12     N12     1.6226   -5.1776   -0.5205 N.am     1 ZINC000545381384   -0.6400
13     C13     1.2177   -6.0151    0.5169 C.2      1 ZINC000545381384    0.3000
14     C14    -0.0106   -6.5854    0.6589 C.2      1 ZINC000545381384   -0.2700
15     C15     0.0039   -7.3483    1.8294 C.2      1 ZINC000545381384    0.1000
16     C16    -1.1496   -8.1526    2.3711 C.3      1 ZINC000545381384   -0.0300
17     C17    -0.7077   -9.6028    2.5777 C.3      1 ZINC000545381384   -0.0600
18     C18     0.4548   -9.6450    3.5715 C.3      1 ZINC000545381384   -0.1500
19     C19    -1.8788  -10.4194    3.1277 C.3      1 ZINC000545381384   -0.1400
20     C20    -0.2572  -10.1941    1.2404 C.3      1 ZINC000545381384   -0.1400
21     N21     1.1886   -7.2465    2.3752 N.2      1 ZINC000545381384   -0.2700
22     N22     1.9777   -6.4167    1.5684 N.pl3    1 ZINC000545381384   -0.3900
23     C23     3.3716   -6.0419    1.8189 C.3      1 ZINC000545381384    0.1000
24     C24     1.7697   -4.4998   -3.7845 C.ar     1 ZINC000545381384   -0.0700
25     C25     1.9585   -5.8772   -3.9546 C.ar     1 ZINC000545381384   -0.1100
26     C26     2.5196   -6.3433   -5.1056 C.ar     1 ZINC000545381384   -0.1000
27     C27     2.9087   -5.4665   -6.1163 C.ar     1 ZINC000545381384   -0.1000
28     C28     2.7408   -4.1229   -5.9833 C.ar     1 ZINC000545381384   -0.0900
29     C29     2.1644   -3.6041   -4.8090 C.ar     1 ZINC000545381384    0.1400
30     N30     1.9875   -2.2931   -4.6494 N.ar     1 ZINC000545381384   -0.4600
31     H31    -1.7513    0.5039   -1.1419 H        1 ZINC000545381384    0.0600
32     H32    -1.8374   -1.0760   -0.3266 H        1 ZINC000545381384    0.0600
33     H33    -2.0182    0.4230    0.6161 H        1 ZINC000545381384    0.0700
34     H34     0.3245    1.0289    0.1330 H        1 ZINC000545381384    0.0900
35     H35     0.2470   -0.5773    0.8962 H        1 ZINC000545381384    0.0800
36     H36    -0.6981   -0.2132   -2.6955 H        1 ZINC000545381384    0.0500
37     H37     0.3224    1.1774   -2.2430 H        1 ZINC000545381384    0.0900
38     H38     0.9440    0.0947   -4.4545 H        1 ZINC000545381384    0.1000
39     H39     2.2697    0.1720   -3.2719 H        1 ZINC000545381384    0.1000
40     H40     0.8197   -2.5363   -0.3942 H        1 ZINC000545381384    0.0900
41     H41    -0.6675   -2.1805   -1.2979 H        1 ZINC000545381384    0.0700
42     H42     2.5257   -4.8238   -0.5337 H        1 ZINC000545381384    0.4100
43     H43    -0.8475   -6.4685   -0.0136 H        1 ZINC000545381384    0.1700
44     H44    -1.4705   -7.7314    3.3238 H        1 ZINC000545381384    0.0800
45     H45    -1.9778   -8.1225    1.6631 H        1 ZINC000545381384    0.0800
46     H46     0.1339   -9.2238    4.5242 H        1 ZINC000545381384    0.0500
47     H47     0.7696  -10.6782    3.7187 H        1 ZINC000545381384    0.0500
48     H48     1.2892   -9.0633    3.1797 H        1 ZINC000545381384    0.0800
49     H49    -2.7070  -10.3893    2.4197 H        1 ZINC000545381384    0.0600
50     H50    -1.5640  -11.4525    3.2749 H        1 ZINC000545381384    0.0600
51     H51    -2.1998   -9.9981    4.0804 H        1 ZINC000545381384    0.0600
52     H52     0.5772   -9.6123    0.8486 H        1 ZINC000545381384    0.0500
53     H53     0.0576  -11.2272    1.3876 H        1 ZINC000545381384    0.0500
54     H54    -1.0854  -10.1639    0.5324 H        1 ZINC000545381384    0.0500
55     H55     4.0336   -6.7686    1.3478 H        1 ZINC000545381384    0.0800
56     H56     3.5625   -5.0530    1.4021 H        1 ZINC000545381384    0.0800
57     H57     3.5560   -6.0252    2.8930 H        1 ZINC000545381384    0.1000
58     H58     1.6614   -6.5661   -3.1777 H        1 ZINC000545381384    0.1300
59     H59     2.6648   -7.4055   -5.2360 H        1 ZINC000545381384    0.1300
60     H60     3.3510   -5.8598   -7.0197 H        1 ZINC000545381384    0.1400
61     H61     3.0488   -3.4571   -6.7759 H        1 ZINC000545381384    0.1400
@<TRIPOS>BOND
1     1     2     1
2     1     31    1
3     1     32    1
4     1     33    1
5     2     3     1
6     2     34    1
7     2     35    1
8     3     8     1
9     3     4     1
10    4     5     1
11    4     36    1
12    4     37    1
13    5     6     1
14    5     38    1
15    5     39    1
16    6     30    ar
17    6     7     ar
18    7     8     1
19    7     9     ar
20    8     40    1
21    8     41    1
22    9     10    1
23    9     24    ar
24    10    11    2
25    10    12    am
26    12    13    1
27    12    42    1
28    13    22    1
29    13    14    2
30    14    15    1
31    14    43    1
32    15    16    1
33    15    21    2
34    16    17    1
35    16    44    1
36    16    45    1
37    17    18    1
38    17    19    1
39    17    20    1
40    18    46    1
41    18    47    1
42    18    48    1
43    19    49    1
44    19    50    1
45    19    51    1
46    20    52    1
47    20    53    1
48    20    54    1
49    21    22    1
50    22    23    1
51    23    55    1
52    23    56    1
53    23    57    1
54    24    29    ar
55    24    25    ar
56    25    26    ar
57    25    58    1
58    26    27    ar
59    26    59    1
60    27    28    ar
61    27    60    1
62    28    29    ar
63    28    61    1
64    29    30    ar
@<TRIPOS>SUBSTRUCTURE
1   ZINC000545381384 1     RESIDUE    1   A     ZIN   1
@<TRIPOS>MOLECULE
ZINC000444811358
54	55	1	0	0
SMALL
USER_CHARGES
@<TRIPOS>ATOM
1      C1     -1.9524    1.4586    1.1060 C.3      1 ZINC000444811358   -0.1100
2      C2     -1.5683    0.0190    0.8802 C.ar     1 ZINC000444811358   -0.1300
3      C3     -0.7675   -0.3210   -0.1939 C.ar     1 ZINC000444811358   -0.0700
4      C4     -0.4138   -1.6398   -0.4042 C.ar     1 ZINC000444811358   -0.1500
5      C5     -0.8627   -2.6256    0.4647 C.ar     1 ZINC000444811358    0.1700
6      N6     -0.5051   -3.9617    0.2535 N.am     1 ZINC000444811358   -0.6800
7      C7     -0.2745   -4.7720    1.3056 C.2      1 ZINC000444811358    0.5200
8      O8     -0.4626   -4.3691    2.4340 O.2      1 ZINC000444811358   -0.5000
9      C9      0.2170   -6.1786    1.0798 C.3      1 ZINC000444811358    0.0200
10     N10     0.3895   -6.8507    2.3746 N.3      1 ZINC000444811358   -0.5000
11     C11     0.4748   -8.3073    2.2044 C.3      1 ZINC000444811358    0.0200
12     C12    -0.9289   -8.8795    1.9964 C.3      1 ZINC000444811358    0.1100
13     H13    -1.5754   -8.5625    2.8146 H        1 ZINC000444811358    0.1200
14     O14    -1.4590   -8.4025    0.7581 O.3      1 ZINC000444811358   -0.5400
15     C15    -0.8573  -10.4076    1.9656 C.3      1 ZINC000444811358    0.0300
16     O16    -2.1792  -10.9449    1.8883 O.3      1 ZINC000444811358   -0.3000
17     C17    -2.2938  -12.2985    1.8522 C.ar     1 ZINC000444811358    0.1300
18     C18    -1.1577  -13.0935    1.8963 C.ar     1 ZINC000444811358   -0.2100
19     C19    -1.2769  -14.4693    1.8600 C.ar     1 ZINC000444811358   -0.0800
20     C20    -2.5272  -15.0541    1.7794 C.ar     1 ZINC000444811358   -0.1600
21     C21    -3.6610  -14.2641    1.7349 C.ar     1 ZINC000444811358   -0.0800
22     C22    -3.5475  -12.8879    1.7771 C.ar     1 ZINC000444811358   -0.1500
23     C23     1.5678   -6.3336    3.0833 C.3      1 ZINC000444811358    0.0700
24     C24     1.5696   -6.8586    4.5205 C.3      1 ZINC000444811358   -0.1400
25     C25     2.8379   -6.7994    2.3686 C.3      1 ZINC000444811358   -0.1900
26     C26    -1.6668   -2.2831    1.5437 C.ar     1 ZINC000444811358   -0.1500
27     C27    -2.0137   -0.9605    1.7527 C.ar     1 ZINC000444811358    0.1200
28     F28    -2.7959   -0.6253    2.8019 F        1 ZINC000444811358   -0.1300
29     H29    -1.2059    1.9389    1.7385 H        1 ZINC000444811358    0.0700
30     H30    -2.0037    1.9756    0.1478 H        1 ZINC000444811358    0.0700
31     H31    -2.9255    1.5026    1.5951 H        1 ZINC000444811358    0.0700
32     H32    -0.4181    0.4454   -0.8699 H        1 ZINC000444811358    0.1400
33     H33     0.2114   -1.9040   -1.2442 H        1 ZINC000444811358    0.1300
34     H34    -0.4231   -4.3049   -0.6500 H        1 ZINC000444811358    0.4100
35     H35    -0.5106   -6.7259    0.4805 H        1 ZINC000444811358    0.1300
36     H36     1.1720   -6.1500    0.5552 H        1 ZINC000444811358    0.0700
37     H37     1.0928   -8.5361    1.3362 H        1 ZINC000444811358    0.0500
38     H38     0.9200   -8.7517    3.0946 H        1 ZINC000444811358    0.1000
39     H39    -0.9332   -8.6480   -0.0155 H        1 ZINC000444811358    0.3700
40     H40    -0.2838  -10.7270    1.0955 H        1 ZINC000444811358    0.0600
41     H41    -0.3715  -10.7669    2.8728 H        1 ZINC000444811358    0.0700
42     H42    -0.1808  -12.6371    1.9586 H        1 ZINC000444811358    0.1300
43     H43    -0.3928  -15.0886    1.8943 H        1 ZINC000444811358    0.1200
44     H44    -2.6183  -16.1299    1.7508 H        1 ZINC000444811358    0.1200
45     H45    -4.6365  -14.7233    1.6716 H        1 ZINC000444811358    0.1300
46     H46    -4.4334  -12.2712    1.7423 H        1 ZINC000444811358    0.1300
47     H47     1.5359   -5.2441    3.0945 H        1 ZINC000444811358    0.0900
48     H48     1.7348   -7.9360    4.5135 H        1 ZINC000444811358    0.0500
49     H49     2.3661   -6.3725    5.0838 H        1 ZINC000444811358    0.0600
50     H50     0.6092   -6.6413    4.9879 H        1 ZINC000444811358    0.0700
51     H51     2.8366   -6.4254    1.3448 H        1 ZINC000444811358    0.0500
52     H52     3.7121   -6.4157    2.8945 H        1 ZINC000444811358    0.0700
53     H53     2.8698   -7.8888    2.3574 H        1 ZINC000444811358    0.0600
54     H54    -2.0177   -3.0477    2.2209 H        1 ZINC000444811358    0.1500
@<TRIPOS>BOND
1     1     2     1
2     1     29    1
3     1     30    1
4     1     31    1
5     2     27    ar
6     2     3     ar
7     3     4     ar
8     3     32    1
9     4     5     ar
10    4     33    1
11    5     6     1
12    5     26    ar
13    6     7     am
14    6     34    1
15    7     8     2
16    7     9     1
17    9     10    1
18    9     35    1
19    9     36    1
20    10    11    1
21    10    23    1
22    11    12    1
23    11    37    1
24    11    38    1
25    12    13    1
26    12    14    1
27    12    15    1
28    14    39    1
29    15    16    1
30    15    40    1
31    15    41    1
32    16    17    1
33    17    22    ar
34    17    18    ar
35    18    19    ar
36    18    42    1
37    19    20    ar
38    19    43    1
39    20    21    ar
40    20    44    1
41    21    22    ar
42    21    45    1
43    22    46    1
44    23    24    1
45    23    25    1
46    23    47    1
47    24    48    1
48    24    49    1
49    24    50    1
50    25    51    1
51    25    52    1
52    25    53    1
53    26    27    ar
54    26    54    1
55    27    28    1
@<TRIPOS>SUBSTRUCTURE
1   ZINC000444811358 1     RESIDUE    1   A     ZIN   1
@<TRIPOS>MOLECULE
ZINC000807524472
58	60	1	0	0
SMALL
USER_CHARGES
@<TRIPOS>ATOM
1      C1     -0.0187    1.5258    0.0104 C.3      1 ZINC000807524472   -0.1500
2      C2      0.0021   -0.0041    0.0020 C.3      1 ZINC000807524472    0.0600
3      O3      0.6932   -0.4774    1.1597 O.3      1 ZINC000807524472   -0.3800
4      C4      0.7699   -1.9016    1.2491 C.3      1 ZINC000807524472    0.0600
5      C5      1.5265   -2.2929    2.5200 C.3      1 ZINC000807524472    0.0700
6      O6      0.7657   -1.8754    3.6841 O.3      1 ZINC000807524472   -0.3500
7      C7      1.2973   -2.1472    4.8923 C.2      1 ZINC000807524472    0.5000
8      O8      2.3675   -2.7176    4.9707 O.2      1 ZINC000807524472   -0.4600
9      C9      0.5813   -1.7530    6.1176 C.ar     1 ZINC000807524472   -0.1200
10     C10    -0.6525   -1.1020    6.0326 C.ar     1 ZINC000807524472    0.0400
11     C11    -1.3172   -0.7365    7.1826 C.ar     1 ZINC000807524472   -0.7000
12     S12    -2.8728    0.0836    7.0723 S.o2     1 ZINC000807524472    2.6900
13     O13    -3.0355    0.8007    8.2883 O.2      1 ZINC000807524472   -0.9500
14     O14    -2.9102    0.7029    5.7939 O.2      1 ZINC000807524472   -0.9500
15     N15    -4.0442   -1.0868    7.0593 N.am     1 ZINC000807524472   -0.9900
16     C16    -4.5060   -1.6697    5.7922 C.3      1 ZINC000807524472    0.1200
17     C17    -4.3854   -3.1945    5.8778 C.3      1 ZINC000807524472   -0.1400
18     C18    -5.1410   -3.6935    7.1116 C.3      1 ZINC000807524472   -0.1200
19     C19    -4.5192   -3.0882    8.3721 C.3      1 ZINC000807524472   -0.1400
20     C20    -4.6371   -1.5665    8.3152 C.3      1 ZINC000807524472    0.1200
21     C21    -0.7692   -1.0106    8.4256 C.ar     1 ZINC000807524472    0.0200
22     C22     0.4482   -1.6523    8.5268 C.ar     1 ZINC000807524472   -0.1800
23     C23     1.1313   -2.0341    7.3790 C.ar     1 ZINC000807524472    0.2000
24     N24     2.3561   -2.6802    7.4780 N.3      1 ZINC000807524472   -0.4800
25     C25     3.3302   -1.8601    8.2427 C.3      1 ZINC000807524472    0.0400
26     C26     4.3873   -2.8975    8.6975 C.3      1 ZINC000807524472   -0.1200
27     C27     3.5322   -4.1455    9.0158 C.3      1 ZINC000807524472   -0.1300
28     C28     2.2262   -3.9511    8.2233 C.3      1 ZINC000807524472    0.0400
29     H29     1.0039    1.9031    0.0027 H        1 ZINC000807524472    0.0600
30     H30    -0.5459    1.8868   -0.8726 H        1 ZINC000807524472    0.0700
31     H31    -0.5289    1.8773    0.9072 H        1 ZINC000807524472    0.0700
32     H32    -1.0205   -0.3814    0.0098 H        1 ZINC000807524472    0.0500
33     H33     0.5123   -0.3556   -0.8948 H        1 ZINC000807524472    0.0500
34     H34    -0.2368   -2.3182    1.2827 H        1 ZINC000807524472    0.0600
35     H35     1.2960   -2.2925    0.3781 H        1 ZINC000807524472    0.0700
36     H36     1.6625   -3.3741    2.5435 H        1 ZINC000807524472    0.0900
37     H37     2.5006   -1.8038    2.5281 H        1 ZINC000807524472    0.0800
38     H38    -1.0841   -0.8855    5.0666 H        1 ZINC000807524472    0.1600
39     H39    -5.5468   -1.3945    5.6213 H        1 ZINC000807524472    0.0800
40     H40    -3.8889   -1.2997    4.9734 H        1 ZINC000807524472    0.0900
41     H41    -4.8139   -3.6442    4.9822 H        1 ZINC000807524472    0.0800
42     H42    -3.3344   -3.4723    5.9579 H        1 ZINC000807524472    0.0700
43     H43    -6.1868   -3.3938    7.0427 H        1 ZINC000807524472    0.0700
44     H44    -5.0775   -4.7805    7.1613 H        1 ZINC000807524472    0.0700
45     H45    -5.0430   -3.4622    9.2518 H        1 ZINC000807524472    0.0800
46     H46    -3.4670   -3.3670    8.4287 H        1 ZINC000807524472    0.0700
47     H47    -4.1089   -1.1272    9.1614 H        1 ZINC000807524472    0.0900
48     H48    -5.6881   -1.2799    8.3491 H        1 ZINC000807524472    0.0800
49     H49    -1.2984   -0.7198    9.3211 H        1 ZINC000807524472    0.1500
50     H50     0.8684   -1.8618    9.4994 H        1 ZINC000807524472    0.1400
51     H51     3.7839   -1.1043    7.6015 H        1 ZINC000807524472    0.0900
52     H52     2.8501   -1.3969    9.1047 H        1 ZINC000807524472    0.0500
53     H53     5.0922   -3.1079    7.8931 H        1 ZINC000807524472    0.0800
54     H54     4.9099   -2.5504    9.5888 H        1 ZINC000807524472    0.0800
55     H55     4.0442   -5.0493    8.6854 H        1 ZINC000807524472    0.0800
56     H56     3.3223   -4.1978   10.0841 H        1 ZINC000807524472    0.0700
57     H57     1.3807   -3.8947    8.9090 H        1 ZINC000807524472    0.0500
58     H58     2.0882   -4.7778    7.5265 H        1 ZINC000807524472    0.0900
@<TRIPOS>BOND
1     1     2     1
2     1     29    1
3     1     30    1
4     1     31    1
5     2     3     1
6     2     32    1
7     2     33    1
8     3     4     1
9     4     5     1
10    4     34    1
11    4     35    1
12    5     6     1
13    5     36    1
14    5     37    1
15    6     7     1
16    7     8     2
17    7     9     1
18    9     23    ar
19    9     10    ar
20    10    11    ar
21    10    38    1
22    11    12    1
23    11    21    ar
24    12    13    2
25    12    14    2
26    12    15    am
27    15    20    1
28    15    16    1
29    16    17    1
30    16    39    1
31    16    40    1
32    17    18    1
33    17    41    1
34    17    42    1
35    18    19    1
36    18    43    1
37    18    44    1
38    19    20    1
39    19    45    1
40    19    46    1
41    20    47    1
42    20    48    1
43    21    22    ar
44    21    49    1
45    22    23    ar
46    22    50    1
47    23    24    1
48    24    28    1
49    24    25    1
50    25    26    1
51    25    51    1
52    25    52    1
53    26    27    1
54    26    53    1
55    26    54    1
56    27    28    1
57    27    55    1
58    27    56    1
59    28    57    1
60    28    58    1
@<TRIPOS>SUBSTRUCTURE
1   ZINC000807524472 1     RESIDUE    1   A     ZIN   1
@<TRIPOS>MOLECULE
ZINC000879023512
33	34	1	0	0
SMALL
USER_CHARGES
@<TRIPOS>ATOM
1      O1      0.0020   -0.0040    0.0119 O.2      1 ZINC000879023512   -0.5600
2      C2     -0.0145    1.2118    0.0103 C.2      1 ZINC000879023512    0.7200
3      N3      1.1435    1.9014    0.0014 N.am     1 ZINC000879023512   -0.6800
4      C4      2.3637    1.2214    0.0917 C.ar     1 ZINC000879023512    0.1800
5      C5      3.4251    1.7867    0.7857 C.ar     1 ZINC000879023512   -0.0900
6      C6      4.6282    1.1136    0.8733 C.ar     1 ZINC000879023512   -0.0700
7      C7      4.7762   -0.1224    0.2699 C.ar     1 ZINC000879023512   -0.0700
8      Br8     6.4246   -1.0409    0.3919 Br       1 ZINC000879023512    0.0200
9      C9      3.7199   -0.6881   -0.4224 C.ar     1 ZINC000879023512    0.0000
10     N10     3.8819   -2.0108   -1.0667 N.pl3    1 ZINC000879023512    0.0200
11     O11     2.9526   -2.5092   -1.6762 O.2      1 ZINC000879023512   -0.1500
12     O12     4.9445   -2.6008   -0.9875 O.2      1 ZINC000879023512   -0.1300
13     C13     2.5131   -0.0224   -0.5078 C.ar     1 ZINC000879023512   -0.0500
14     N14    -1.1907    1.8698    0.0120 N.am     1 ZINC000879023512   -0.6300
15     C15    -1.3552    3.3308    0.0040 C.3      1 ZINC000879023512    0.0900
16     C16    -2.8704    3.6215    0.0357 C.3      1 ZINC000879023512   -0.1200
17     C17    -3.4622    2.3165    0.6308 C.3      1 ZINC000879023512   -0.1400
18     H18    -3.3975    2.3188    1.7189 H        1 ZINC000879023512    0.1000
19     C19    -4.9066    2.1096    0.1707 C.3      1 ZINC000879023512    0.0700
20     F20    -5.4450    0.9897    0.8135 F        1 ZINC000879023512   -0.2100
21     C21    -2.5254    1.2439    0.0156 C.3      1 ZINC000879023512    0.1300
22     H22     1.1313    2.8688   -0.0677 H        1 ZINC000879023512    0.4200
23     H23     3.3103    2.7520    1.2563 H        1 ZINC000879023512    0.1600
24     H24     5.4541    1.5529    1.4130 H        1 ZINC000879023512    0.1600
25     H25     1.6890   -0.4645   -1.0479 H        1 ZINC000879023512    0.1800
26     H26    -0.8764    3.7626    0.8829 H        1 ZINC000879023512    0.0700
27     H27    -0.9165    3.7483   -0.9023 H        1 ZINC000879023512    0.0700
28     H28    -3.0864    4.4725    0.6817 H        1 ZINC000879023512    0.0900
29     H29    -3.2513    3.7936   -0.9709 H        1 ZINC000879023512    0.0900
30     H30    -5.4973    2.9909    0.4208 H        1 ZINC000879023512    0.0800
31     H31    -4.9256    1.9536   -0.9079 H        1 ZINC000879023512    0.0800
32     H32    -2.8400    1.0029   -0.9998 H        1 ZINC000879023512    0.0800
33     H33    -2.5182    0.3466    0.6345 H        1 ZINC000879023512    0.0900
@<TRIPOS>BOND
1     1     2     2
2     2     3     am
3     2     14    am
4     3     4     1
5     3     22    1
6     4     13    ar
7     4     5     ar
8     5     6     ar
9     5     23    1
10    6     7     ar
11    6     24    1
12    7     8     1
13    7     9     ar
14    9     10    1
15    9     13    ar
16    10    11    2
17    10    12    2
18    13    25    1
19    14    21    1
20    14    15    1
21    15    16    1
22    15    26    1
23    15    27    1
24    16    17    1
25    16    28    1
26    16    29    1
27    17    18    1
28    17    19    1
29    17    21    1
30    19    20    1
31    19    30    1
32    19    31    1
33    21    32    1
34    21    33    1
@<TRIPOS>SUBSTRUCTURE
1   ZINC000879023512 1     RESIDUE    1   A     ZIN   1
@<TRIPOS>MOLECULE
ZINC000945148121
52	54	1	0	0
SMALL
USER_CHARGES
@<TRIPOS>ATOM
1      O1      0.0021   -0.0041    0.0020 O.2      1 ZINC000945148121   -0.5100
2      C2     -0.0144    1.2086    0.0087 C.2      1 ZINC000945148121    0.5200
3      C3      1.2803    1.9798    0.0005 C.3      1 ZINC000945148121   -0.0500
4      C4      2.4389    1.0162   -0.0158 C.2      1 ZINC000945148121    0.0100
5      C5      3.4413    0.9989   -0.9149 C.2      1 ZINC000945148121   -0.0500
6      N6      4.2731   -0.0289   -0.5610 N.pl3    1 ZINC000945148121   -0.5700
7      C7      3.7498   -0.6043    0.5430 C.2      1 ZINC000945148121    0.1800
8      N8      2.6555    0.0292    0.8662 N.2      1 ZINC000945148121   -0.4700
9      N9     -1.1906    1.8666    0.0178 N.am     1 ZINC000945148121   -0.7300
10     C10    -2.4492    1.1169    0.0197 C.3      1 ZINC000945148121    0.1500
11     C11    -2.8152    0.7387    1.4568 C.3      1 ZINC000945148121   -0.1400
12     C12    -4.1134   -0.0746    1.4517 C.3      1 ZINC000945148121    0.1100
13     N13    -5.1495    0.6928    0.7472 N.am     1 ZINC000945148121   -0.6100
14     C14    -6.3372    0.9422    1.3334 C.2      1 ZINC000945148121    0.5200
15     O15    -6.5589    0.5319    2.4529 O.2      1 ZINC000945148121   -0.5400
16     C16    -7.3897    1.7309    0.5977 C.3      1 ZINC000945148121   -0.1000
17     C17    -7.7752    1.0061   -0.6633 C.3      1 ZINC000945148121   -0.1200
18     C18    -8.1274    1.9695   -1.8128 C.3      1 ZINC000945148121   -0.1200
19     C19    -8.9741    3.1698   -1.3482 C.3      1 ZINC000945148121   -0.1200
20     C20   -10.0458    2.7738   -0.3690 C.3      1 ZINC000945148121   -0.1200
21     C21    -9.5007    2.9713    1.0603 C.3      1 ZINC000945148121   -0.1200
22     C22    -8.6441    1.8735    1.4839 C.3      1 ZINC000945148121   -0.1000
23     C23    -4.8660    1.1837   -0.6084 C.3      1 ZINC000945148121    0.1100
24     C24    -3.5594    1.9829   -0.5801 C.3      1 ZINC000945148121   -0.1400
25     H25     1.3211    2.6120   -0.8866 H        1 ZINC000945148121    0.1000
26     H26     1.3381    2.6024    0.8933 H        1 ZINC000945148121    0.1000
27     H27     3.5648    1.6673   -1.7542 H        1 ZINC000945148121    0.1800
28     H28     5.0866   -0.2943   -1.0178 H        1 ZINC000945148121    0.4200
29     H29     4.1695   -1.4465    1.0730 H        1 ZINC000945148121    0.2100
30     H30    -1.2037    2.8365    0.0232 H        1 ZINC000945148121    0.4000
31     H31    -2.3334    0.2112   -0.5756 H        1 ZINC000945148121    0.0900
32     H32    -2.0135    0.1415    1.8912 H        1 ZINC000945148121    0.0800
33     H33    -2.9557    1.6443    2.0468 H        1 ZINC000945148121    0.0700
34     H34    -3.9488   -1.0224    0.9391 H        1 ZINC000945148121    0.0700
35     H35    -4.4314   -0.2619    2.4773 H        1 ZINC000945148121    0.1000
36     H36    -7.0012    2.7191    0.3513 H        1 ZINC000945148121    0.1000
37     H37    -6.9436    0.3741   -0.9751 H        1 ZINC000945148121    0.0700
38     H38    -8.6383    0.3733   -0.4566 H        1 ZINC000945148121    0.0700
39     H39    -7.2033    2.3415   -2.2554 H        1 ZINC000945148121    0.0600
40     H40    -8.6829    1.4210   -2.5735 H        1 ZINC000945148121    0.0700
41     H41    -8.3188    3.9022   -0.8767 H        1 ZINC000945148121    0.0600
42     H42    -9.4436    3.6283   -2.2185 H        1 ZINC000945148121    0.0600
43     H43   -10.9253    3.4009   -0.5153 H        1 ZINC000945148121    0.0600
44     H44   -10.3100    1.7270   -0.5188 H        1 ZINC000945148121    0.0700
45     H45    -8.9291    3.8987    1.0951 H        1 ZINC000945148121    0.0600
46     H46   -10.3405    3.0503    1.7506 H        1 ZINC000945148121    0.0600
47     H47    -9.2134    0.9450    1.4418 H        1 ZINC000945148121    0.0700
48     H48    -8.3310    2.0471    2.5135 H        1 ZINC000945148121    0.0700
49     H49    -4.7628    0.3385   -1.2889 H        1 ZINC000945148121    0.0700
50     H50    -5.6805    1.8267   -0.9419 H        1 ZINC000945148121    0.1000
51     H51    -3.6928    2.8768    0.0291 H        1 ZINC000945148121    0.0700
52     H52    -3.2873    2.2713   -1.5955 H        1 ZINC000945148121    0.0800
@<TRIPOS>BOND
1     1     2     2
2     2     3     1
3     2     9     am
4     3     4     1
5     3     25    1
6     3     26    1
7     4     8     1
8     4     5     2
9     5     6     1
10    5     27    1
11    6     7     1
12    6     28    1
13    7     8     2
14    7     29    1
15    9     10    1
16    9     30    1
17    10    24    1
18    10    11    1
19    10    31    1
20    11    12    1
21    11    32    1
22    11    33    1
23    12    13    1
24    12    34    1
25    12    35    1
26    13    14    am
27    13    23    1
28    14    15    2
29    14    16    1
30    16    22    1
31    16    17    1
32    16    36    1
33    17    18    1
34    17    37    1
35    17    38    1
36    18    19    1
37    18    39    1
38    18    40    1
39    19    20    1
40    19    41    1
41    19    42    1
42    20    21    1
43    20    43    1
44    20    44    1
45    21    22    1
46    21    45    1
47    21    46    1
48    22    47    1
49    22    48    1
50    23    24    1
51    23    49    1
52    23    50    1
53    24    51    1
54    24    52    1
@<TRIPOS>SUBSTRUCTURE
1   ZINC000945148121 1     RESIDUE    1   A     ZIN   1
@<TRIPOS>MOLECULE
ZINC000185180600
52	53	1	0	0
SMALL
USER_CHARGES
@<TRIPOS>ATOM
1      C1      0.9143   -0.5857   -1.1961 C.3      1 ZINC000185180600   -0.1500
2      C2      0.1740   -0.1307    0.0632 C.3      1 ZINC000185180600   -0.0900
3      C3      0.2765    1.3903    0.1935 C.3      1 ZINC000185180600   -0.1500
4      C4     -1.2980   -0.5360   -0.0360 C.3      1 ZINC000185180600   -0.1300
5      C5     -1.4101   -2.0615   -0.0045 C.3      1 ZINC000185180600    0.1300
6      H6     -0.8060   -2.4869   -0.8058 H        1 ZINC000185180600    0.1100
7      C7     -2.8722   -2.4695   -0.1964 C.3      1 ZINC000185180600   -0.1600
8      N8     -0.9295   -2.5599    1.2866 N.am     1 ZINC000185180600   -0.6000
9      C9     -1.5889   -2.1396    2.5255 C.3      1 ZINC000185180600    0.0700
10     C10     0.1192   -3.4050    1.3347 C.2      1 ZINC000185180600    0.5400
11     O11     0.6651   -3.7530    0.3091 O.2      1 ZINC000185180600   -0.5300
12     C12     0.6136   -3.9177    2.6628 C.3      1 ZINC000185180600   -0.5000
13     S13     2.0248   -5.0258    2.3958 S.o      1 ZINC000185180600    1.3200
14     O14     1.6008   -6.1631    1.6568 O.2      1 ZINC000185180600   -0.8000
15     C15     2.4711   -5.5311    4.0799 C.3      1 ZINC000185180600   -0.3900
16     C16     3.6483   -6.4704    4.0272 C.2      1 ZINC000185180600    0.1000
17     N17     3.5858   -7.7735    3.9224 N.2      1 ZINC000185180600   -0.2800
18     N18     4.8938   -8.2750    3.9069 N.pl3    1 ZINC000185180600   -0.3200
19     C19     5.2589   -9.6250    3.8064 C.ar     1 ZINC000185180600    0.1700
20     C20     6.5998   -9.9846    3.8081 C.ar     1 ZINC000185180600   -0.1300
21     C21     6.9570  -11.3150    3.7089 C.ar     1 ZINC000185180600   -0.0800
22     C22     5.9794  -12.2893    3.6074 C.ar     1 ZINC000185180600   -0.0500
23     Cl23    6.4315  -13.9608    3.4829 Cl       1 ZINC000185180600   -0.0600
24     C24     4.6421  -11.9333    3.6056 C.ar     1 ZINC000185180600   -0.0800
25     C25     4.2799  -10.6047    3.7107 C.ar     1 ZINC000185180600   -0.1100
26     C26     5.7418   -7.2265    4.0061 C.2      1 ZINC000185180600    0.0600
27     C27     4.9964   -6.0991    4.0757 C.2      1 ZINC000185180600   -0.2500
28     H28     1.9630   -0.2969   -1.1255 H        1 ZINC000185180600    0.0500
29     H29     0.8413   -1.6692   -1.2890 H        1 ZINC000185180600    0.0600
30     H30     0.4660   -0.1150   -2.0711 H        1 ZINC000185180600    0.0500
31     H31     0.6223   -0.6013    0.9382 H        1 ZINC000185180600    0.0700
32     H32     1.3181    1.6725    0.3472 H        1 ZINC000185180600    0.0500
33     H33    -0.0963    1.8590   -0.7173 H        1 ZINC000185180600    0.0500
34     H34    -0.3192    1.7231    1.0434 H        1 ZINC000185180600    0.0500
35     H35    -1.8485   -0.1137    0.8046 H        1 ZINC000185180600    0.0700
36     H36    -1.7162   -0.1602   -0.9698 H        1 ZINC000185180600    0.0800
37     H37    -3.4763   -2.0441    0.6050 H        1 ZINC000185180600    0.0600
38     H38    -3.2297   -2.0987   -1.1570 H        1 ZINC000185180600    0.0700
39     H39    -2.9521   -3.5564   -0.1739 H        1 ZINC000185180600    0.0600
40     H40    -2.3938   -2.8353    2.7627 H        1 ZINC000185180600    0.0600
41     H41    -0.8634   -2.1325    3.3389 H        1 ZINC000185180600    0.0700
42     H42    -2.0002   -1.1385    2.3966 H        1 ZINC000185180600    0.0800
43     H43     0.9239   -3.0774    3.2839 H        1 ZINC000185180600    0.1500
44     H44    -0.1870   -4.4629    3.1626 H        1 ZINC000185180600    0.1200
45     H45     2.7349   -4.6505    4.6656 H        1 ZINC000185180600    0.1400
46     H46     1.6240   -6.0360    4.5443 H        1 ZINC000185180600    0.1000
47     H47     7.3631   -9.2245    3.8865 H        1 ZINC000185180600    0.1400
48     H48     8.0000  -11.5952    3.7101 H        1 ZINC000185180600    0.1500
49     H49     3.8810  -12.6954    3.5259 H        1 ZINC000185180600    0.1400
50     H50     3.2361  -10.3274    3.7092 H        1 ZINC000185180600    0.1500
51     H51     6.8205   -7.2789    4.0221 H        1 ZINC000185180600    0.1800
52     H52     5.3752   -5.0914    4.1613 H        1 ZINC000185180600    0.1700
@<TRIPOS>BOND
1     1     2     1
2     1     28    1
3     1     29    1
4     1     30    1
5     2     3     1
6     2     4     1
7     2     31    1
8     3     32    1
9     3     33    1
10    3     34    1
11    4     5     1
12    4     35    1
13    4     36    1
14    5     6     1
15    5     7     1
16    5     8     1
17    7     37    1
18    7     38    1
19    7     39    1
20    8     9     1
21    8     10    am
22    9     40    1
23    9     41    1
24    9     42    1
25    10    11    2
26    10    12    1
27    12    13    1
28    12    43    1
29    12    44    1
30    13    14    2
31    13    15    1
32    15    16    1
33    15    45    1
34    15    46    1
35    16    27    1
36    16    17    2
37    17    18    1
38    18    19    1
39    18    26    1
40    19    25    ar
41    19    20    ar
42    20    21    ar
43    20    47    1
44    21    22    ar
45    21    48    1
46    22    23    1
47    22    24    ar
48    24    25    ar
49    24    49    1
50    25    50    1
51    26    27    2
52    26    51    1
53    27    52    1
@<TRIPOS>SUBSTRUCTURE
1   ZINC000185180600 1     RESIDUE    1   A     ZIN   1
@<TRIPOS>MOLECULE
ZINC000499369364
49	51	1	0	0
SMALL
USER_CHARGES
@<TRIPOS>ATOM
1      C1     -0.0187    1.5258    0.0104 C.3      1 ZINC000499369364   -0.1500
2      C2      0.0021   -0.0041    0.0020 C.3      1 ZINC000499369364   -0.1000
3      C3      0.7421   -0.5109    1.2415 C.3      1 ZINC000499369364   -0.1500
4      C4     -1.4333   -0.5336    0.0129 C.3      1 ZINC000499369364    0.1500
5      H5     -1.9435   -0.1821    0.9097 H        1 ZINC000499369364    0.0900
6      C6     -2.1733   -0.0268   -1.2266 C.3      1 ZINC000499369364   -0.1700
7      N7     -1.4134   -1.9985    0.0048 N.am     1 ZINC000499369364   -0.7200
8      C8     -2.4573   -2.6894    0.5044 C.2      1 ZINC000499369364    0.5100
9      O9     -3.4131   -2.0984    0.9606 O.2      1 ZINC000499369364   -0.5100
10     C10    -2.4369   -4.1962    0.4961 C.3      1 ZINC000499369364    0.1200
11     H11    -2.3394   -4.5387   -0.5341 H        1 ZINC000499369364    0.1200
12     C12    -1.2085   -4.6809    1.2993 C.3      1 ZINC000499369364   -0.0800
13     S13    -1.9693   -5.0509    2.9357 S.3      1 ZINC000499369364   -0.2400
14     C14    -3.5825   -5.5621    2.2114 C.3      1 ZINC000499369364    0.1400
15     N15    -3.6977   -4.6841    1.0340 N.am     1 ZINC000499369364   -0.6000
16     C16    -4.8865   -4.3568    0.4900 C.2      1 ZINC000499369364    0.5600
17     O17    -4.9301   -3.6296   -0.4797 O.2      1 ZINC000499369364   -0.5000
18     C18    -6.1617   -4.8944    1.0866 C.3      1 ZINC000499369364   -0.1500
19     S19    -7.5767   -4.2796    0.1400 S.3      1 ZINC000499369364    0.1300
20     C20    -8.8937   -5.0406    1.0294 C.2      1 ZINC000499369364    0.2000
21     N21    -8.7777   -5.8191    2.0834 N.2      1 ZINC000499369364   -0.3400
22     N22    -9.9342   -6.2053    2.4867 N.2      1 ZINC000499369364   -0.0300
23     N23   -10.8584   -5.7123    1.7354 N.2      1 ZINC000499369364   -0.0800
24     N24   -10.2160   -4.9295    0.7602 N.pl3    1 ZINC000499369364   -0.3300
25     C25   -10.8424   -4.1649   -0.3210 C.3      1 ZINC000499369364    0.0500
26     C26   -12.3420   -4.3641   -0.5503 C.3      1 ZINC000499369364   -0.1500
27     C27   -11.8293   -3.0638    0.0722 C.3      1 ZINC000499369364   -0.1600
28     H28     1.0039    1.9031    0.0027 H        1 ZINC000499369364    0.0600
29     H29    -0.5459    1.8868   -0.8726 H        1 ZINC000499369364    0.0600
30     H30    -0.5289    1.8773    0.9072 H        1 ZINC000499369364    0.0600
31     H31     0.5123   -0.3556   -0.8948 H        1 ZINC000499369364    0.0800
32     H32     1.7647   -0.1336    1.2338 H        1 ZINC000499369364    0.0600
33     H33     0.2319   -0.1594    2.1383 H        1 ZINC000499369364    0.0600
34     H34     0.7568   -1.6008    1.2356 H        1 ZINC000499369364    0.0500
35     H35    -1.6631   -0.3783   -2.1234 H        1 ZINC000499369364    0.0600
36     H36    -3.1959   -0.4041   -1.2189 H        1 ZINC000499369364    0.0600
37     H37    -2.1881    1.0631   -1.2207 H        1 ZINC000499369364    0.0700
38     H38    -0.6490   -2.4712   -0.3601 H        1 ZINC000499369364    0.4000
39     H39    -0.7796   -5.5791    0.8549 H        1 ZINC000499369364    0.1200
40     H40    -0.4605   -3.8927    1.3845 H        1 ZINC000499369364    0.1300
41     H41    -3.5576   -6.6101    1.9130 H        1 ZINC000499369364    0.1100
42     H42    -4.3968   -5.3777    2.9122 H        1 ZINC000499369364    0.1200
43     H43    -6.1477   -5.9838    1.0528 H        1 ZINC000499369364    0.1300
44     H44    -6.2460   -4.5640    2.1219 H        1 ZINC000499369364    0.1300
45     H45   -10.2177   -3.9914   -1.1972 H        1 ZINC000499369364    0.1600
46     H46   -12.7041   -4.3218   -1.5775 H        1 ZINC000499369364    0.1200
47     H47   -12.8624   -5.0640    0.1034 H        1 ZINC000499369364    0.1200
48     H48   -12.0125   -2.9084    1.1354 H        1 ZINC000499369364    0.1100
49     H49   -11.8541   -2.1661   -0.5455 H        1 ZINC000499369364    0.1200
@<TRIPOS>BOND
1     1     2     1
2     1     28    1
3     1     29    1
4     1     30    1
5     2     3     1
6     2     4     1
7     2     31    1
8     3     32    1
9     3     33    1
10    3     34    1
11    4     5     1
12    4     6     1
13    4     7     1
14    6     35    1
15    6     36    1
16    6     37    1
17    7     8     am
18    7     38    1
19    8     9     2
20    8     10    1
21    10    11    1
22    10    15    1
23    10    12    1
24    12    13    1
25    12    39    1
26    12    40    1
27    13    14    1
28    14    15    1
29    14    41    1
30    14    42    1
31    15    16    am
32    16    17    2
33    16    18    1
34    18    19    1
35    18    43    1
36    18    44    1
37    19    20    1
38    20    24    1
39    20    21    2
40    21    22    1
41    22    23    2
42    23    24    1
43    24    25    1
44    25    27    1
45    25    26    1
46    25    45    1
47    26    27    1
48    26    46    1
49    26    47    1
50    27    48    1
51    27    49    1
@<TRIPOS>SUBSTRUCTURE
1   ZINC000499369364 1     RESIDUE    1   A     ZIN   1
@<TRIPOS>MOLECULE
ZINC000081577146
46	49	1	0	0
SMALL
USER_CHARGES
@<TRIPOS>ATOM
1      C1     -0.0184    1.5028    0.0103 C.3      1 ZINC000081577146   -0.0700
2      C2      0.0021   -0.0041    0.0020 C.2      1 ZINC000081577146    0.2900
3      N3      0.0060   -0.6693   -1.1163 N.2      1 ZINC000081577146   -0.4800
4      S4      0.0302   -2.3109   -0.6770 S.3      1 ZINC000081577146    0.1900
5      C5      0.0338   -1.9995    1.0177 C.2      1 ZINC000081577146    0.2700
6      N6      0.0511   -2.9265    2.0441 N.3      1 ZINC000081577146   -0.4300
7      C7      1.1926   -2.6980    2.9409 C.3      1 ZINC000081577146    0.0700
8      C8      1.1311   -3.6911    4.1038 C.3      1 ZINC000081577146    0.0500
9      N9      1.1467   -5.0621    3.5751 N.3      1 ZINC000081577146   -0.5200
10     C10     1.1650   -6.0466    4.6652 C.3      1 ZINC000081577146    0.1900
11     H11     0.2763   -5.9206    5.2836 H        1 ZINC000081577146    0.0700
12     C12     2.4158   -5.8366    5.5210 C.3      1 ZINC000081577146   -0.1500
13     C13     1.1806   -7.4376    4.0857 C.2      1 ZINC000081577146    0.1900
14     N14     1.9358   -7.8390    3.1018 N.2      1 ZINC000081577146   -0.4500
15     C15     1.6796   -9.1328    2.8572 C.2      1 ZINC000081577146   -0.0200
16     C16     0.7241   -9.5332    3.7347 C.2      1 ZINC000081577146    0.0000
17     C17     0.1300  -10.8831    3.8350 C.ar     1 ZINC000081577146   -0.0200
18     C18    -0.8533  -11.1469    4.7898 C.ar     1 ZINC000081577146   -0.1000
19     C19    -1.4040  -12.4088    4.8778 C.ar     1 ZINC000081577146   -0.1200
20     C20    -0.9833  -13.4117    4.0226 C.ar     1 ZINC000081577146   -0.1100
21     C21    -0.0087  -13.1569    3.0743 C.ar     1 ZINC000081577146   -0.1100
22     C22     0.5458  -11.8978    2.9716 C.ar     1 ZINC000081577146   -0.0900
23     O23     0.4246   -8.4624    4.5025 O.3      1 ZINC000081577146   -0.2000
24     C24     0.0051   -5.2907    2.6782 C.3      1 ZINC000081577146    0.0600
25     C25     0.0666   -4.2975    1.5153 C.3      1 ZINC000081577146    0.0500
26     N26     0.0220   -0.6874    1.1228 N.2      1 ZINC000081577146   -0.5400
27     H27     1.0042    1.8801    0.0026 H        1 ZINC000081577146    0.0900
28     H28    -0.5455    1.8639   -0.8728 H        1 ZINC000081577146    0.0900
29     H29    -0.5286    1.8543    0.9071 H        1 ZINC000081577146    0.0900
30     H30     2.1222   -2.8404    2.3898 H        1 ZINC000081577146    0.0700
31     H31     1.1519   -1.6803    3.3292 H        1 ZINC000081577146    0.1100
32     H32     1.9926   -3.5426    4.7548 H        1 ZINC000081577146    0.1000
33     H33     0.2143   -3.5305    4.6711 H        1 ZINC000081577146    0.0600
34     H34     3.3045   -5.9627    4.9027 H        1 ZINC000081577146    0.0800
35     H35     2.4045   -4.8305    5.9402 H        1 ZINC000081577146    0.0800
36     H36     2.4294   -6.5671    6.3299 H        1 ZINC000081577146    0.0700
37     H37     2.1480   -9.7444    2.1003 H        1 ZINC000081577146    0.1900
38     H38    -1.1821  -10.3651    5.4584 H        1 ZINC000081577146    0.1300
39     H39    -2.1650  -12.6143    5.6162 H        1 ZINC000081577146    0.1300
40     H40    -1.4174  -14.3979    4.0959 H        1 ZINC000081577146    0.1300
41     H41     0.3158  -13.9444    2.4102 H        1 ZINC000081577146    0.1300
42     H42     1.3062  -11.7001    2.2306 H        1 ZINC000081577146    0.1300
43     H43     0.0458   -6.3083    2.2899 H        1 ZINC000081577146    0.0900
44     H44    -0.9245   -5.1482    3.2293 H        1 ZINC000081577146    0.0500
45     H45    -0.7949   -4.4461    0.8643 H        1 ZINC000081577146    0.1000
46     H46     0.9834   -4.4581    0.9481 H        1 ZINC000081577146    0.0800
@<TRIPOS>BOND
1     1     2     1
2     1     27    1
3     1     28    1
4     1     29    1
5     2     26    1
6     2     3     2
7     3     4     1
8     4     5     1
9     5     6     1
10    5     26    2
11    6     25    1
12    6     7     1
13    7     8     1
14    7     30    1
15    7     31    1
16    8     9     1
17    8     32    1
18    8     33    1
19    9     10    1
20    9     24    1
21    10    11    1
22    10    12    1
23    10    13    1
24    12    34    1
25    12    35    1
26    12    36    1
27    13    23    1
28    13    14    2
29    14    15    1
30    15    16    2
31    15    37    1
32    16    17    1
33    16    23    1
34    17    22    ar
35    17    18    ar
36    18    19    ar
37    18    38    1
38    19    20    ar
39    19    39    1
40    20    21    ar
41    20    40    1
42    21    22    ar
43    21    41    1
44    22    42    1
45    24    25    1
46    24    43    1
47    24    44    1
48    25    45    1
49    25    46    1
@<TRIPOS>SUBSTRUCTURE
1   ZINC000081577146 1     RESIDUE    1   A     ZIN   1
@<TRIPOS>MOLECULE
ZINC000433533595
49	50	1	0	0
SMALL
USER_CHARGES
@<TRIPOS>ATOM
1      C1      5.1366   -5.7492    1.9317 C.3      1 ZINC000433533595   -0.1500
2      C2      4.9767   -4.2431    2.1482 C.3      1 ZINC000433533595   -0.1200
3      C3      3.4906   -3.8797    2.1276 C.3      1 ZINC000433533595   -0.1300
4      C4      3.3308   -2.3736    2.3440 C.3      1 ZINC000433533595    0.1000
5      N5      1.9078   -2.0257    2.3243 N.am     1 ZINC000433533595   -0.5500
6      C6      1.1455   -2.2442    3.4141 C.2      1 ZINC000433533595    0.5100
7      O7     -0.0384   -1.9786    3.3896 O.2      1 ZINC000433533595   -0.5100
8      C8      1.7577   -2.8131    4.6517 C.2      1 ZINC000433533595    0.5000
9      O9      2.9254   -3.1449    4.6539 O.2      1 ZINC000433533595   -0.4900
10     N10     1.0138   -2.9582    5.7661 N.am     1 ZINC000433533595   -0.6300
11     C11     1.6103   -3.3960    6.9531 C.ar     1 ZINC000433533595    0.1200
12     C12     2.9536   -3.1428    7.1912 C.ar     1 ZINC000433533595   -0.0600
13     C13     3.5408   -3.5768    8.3656 C.ar     1 ZINC000433533595   -0.1100
14     Br14    5.3715   -3.2305    8.6889 Br       1 ZINC000433533595   -0.0400
15     C15     2.7919   -4.2632    9.3046 C.ar     1 ZINC000433533595   -0.0600
16     C16     1.4527   -4.5190    9.0739 C.ar     1 ZINC000433533595   -0.1900
17     C17     0.8555   -4.0828    7.9028 C.ar     1 ZINC000433533595    0.1300
18     O18    -0.4614   -4.3338    7.6750 O.3      1 ZINC000433533595   -0.3100
19     C19    -1.2054   -4.9176    8.7463 C.3      1 ZINC000433533595    0.0800
20     C20    -2.6872   -4.5723    8.5856 C.3      1 ZINC000433533595   -0.1500
21     C21    -1.0301   -6.4373    8.7201 C.3      1 ZINC000433533595   -0.1800
22     C22     1.3135   -1.4403    1.1200 C.3      1 ZINC000433533595    0.0600
23     C23    -0.2122   -1.4539    1.0070 C.3      1 ZINC000433533595   -0.1900
24     C24     0.5227   -0.1406    1.2827 C.3      1 ZINC000433533595   -0.1800
25     H25     4.7084   -6.0253    0.9681 H        1 ZINC000433533595    0.0500
26     H26     6.1953   -6.0080    1.9464 H        1 ZINC000433533595    0.0500
27     H27     4.6199   -6.2873    2.7265 H        1 ZINC000433533595    0.0500
28     H28     5.4049   -3.9670    3.1118 H        1 ZINC000433533595    0.0700
29     H29     5.4934   -3.7049    1.3534 H        1 ZINC000433533595    0.0600
30     H30     3.0624   -4.1558    1.1640 H        1 ZINC000433533595    0.0600
31     H31     2.9740   -4.4178    2.9223 H        1 ZINC000433533595    0.0700
32     H32     3.7590   -2.0975    3.3076 H        1 ZINC000433533595    0.1100
33     H33     3.8474   -1.8355    1.5493 H        1 ZINC000433533595    0.0800
34     H34     0.0647   -2.7591    5.7450 H        1 ZINC000433533595    0.4300
35     H35     3.5404   -2.6074    6.4595 H        1 ZINC000433533595    0.1600
36     H36     3.2547   -4.6006   10.2203 H        1 ZINC000433533595    0.1400
37     H37     0.8711   -5.0552    9.8092 H        1 ZINC000433533595    0.1500
38     H38    -0.8420   -4.5263    9.6965 H        1 ZINC000433533595    0.0800
39     H39    -3.0505   -4.9636    7.6354 H        1 ZINC000433533595    0.0700
40     H40    -3.2547   -5.0176    9.4028 H        1 ZINC000433533595    0.0800
41     H41    -2.8121   -3.4896    8.6043 H        1 ZINC000433533595    0.0700
42     H42    -1.3934   -6.8286    7.7698 H        1 ZINC000433533595    0.0700
43     H43     0.0256   -6.6833    8.8345 H        1 ZINC000433533595    0.0600
44     H44    -1.5976   -6.8826    9.5372 H        1 ZINC000433533595    0.0800
45     H45     1.8876   -1.5686    0.2024 H        1 ZINC000433533595    0.1400
46     H46    -0.6422   -1.5914    0.0149 H        1 ZINC000433533595    0.0900
47     H47    -0.7738   -1.8984    1.8287 H        1 ZINC000433533595    0.1400
48     H48     0.4447    0.2788    2.2857 H        1 ZINC000433533595    0.1000
49     H49     0.5763    0.5859    0.4719 H        1 ZINC000433533595    0.1000
@<TRIPOS>BOND
1     1     2     1
2     1     25    1
3     1     26    1
4     1     27    1
5     2     3     1
6     2     28    1
7     2     29    1
8     3     4     1
9     3     30    1
10    3     31    1
11    4     5     1
12    4     32    1
13    4     33    1
14    5     6     am
15    5     22    1
16    6     7     2
17    6     8     1
18    8     9     2
19    8     10    am
20    10    11    1
21    10    34    1
22    11    17    ar
23    11    12    ar
24    12    13    ar
25    12    35    1
26    13    14    1
27    13    15    ar
28    15    16    ar
29    15    36    1
30    16    17    ar
31    16    37    1
32    17    18    1
33    18    19    1
34    19    20    1
35    19    21    1
36    19    38    1
37    20    39    1
38    20    40    1
39    20    41    1
40    21    42    1
41    21    43    1
42    21    44    1
43    22    24    1
44    22    23    1
45    22    45    1
46    23    24    1
47    23    46    1
48    23    47    1
49    24    48    1
50    24    49    1
@<TRIPOS>SUBSTRUCTURE
1   ZINC000433533595 1     RESIDUE    1   A     ZIN   1
@<TRIPOS>MOLECULE
ZINC000626935317
47	49	1	0	0
SMALL
USER_CHARGES
@<TRIPOS>ATOM
1      C1     -0.0178    1.4608    0.0101 C.3      1 ZINC000626935317    0.0900
2      N2      0.0021   -0.0041    0.0020 N.am     1 ZINC000626935317   -0.6200
3      C3      0.0076   -0.7564   -1.1119 C.2      1 ZINC000626935317    0.5200
4      O4     -0.0099   -0.3215   -2.2439 O.2      1 ZINC000626935317   -0.5200
5      C5      0.0391   -2.2245   -0.7481 C.3      1 ZINC000626935317   -0.1500
6      C6      0.4713   -2.2380    0.7365 C.3      1 ZINC000626935317   -0.1200
7      H7      1.5517   -2.3497    0.8273 H        1 ZINC000626935317    0.1200
8      C8     -0.2462   -3.3232    1.4972 C.2      1 ZINC000626935317    0.5300
9      O9     -0.9719   -3.0351    2.4252 O.2      1 ZINC000626935317   -0.5200
10     N10    -0.0813   -4.6140    1.1462 N.am     1 ZINC000626935317   -0.7100
11     C11    -0.7788   -5.6690    1.8856 C.3      1 ZINC000626935317    0.1200
12     C12    -1.9368   -6.3085    1.1015 C.3      1 ZINC000626935317   -0.1600
13     C13    -0.9062   -7.3055    0.5459 C.3      1 ZINC000626935317    0.1200
14     N14    -0.2556   -6.8518   -0.6858 N.am     1 ZINC000626935317   -1.1100
15     S15     0.1536   -7.9475   -1.8581 S.o2     1 ZINC000626935317    2.6100
16     C16    -1.4351   -8.5999   -2.4421 C.3      1 ZINC000626935317   -0.6700
17     O17     0.7729   -7.1642   -2.8691 O.2      1 ZINC000626935317   -0.9500
18     O18     0.8792   -8.9513   -1.1616 O.2      1 ZINC000626935317   -0.9500
19     C19    -0.0793   -7.0367    1.8144 C.3      1 ZINC000626935317   -0.1600
20     C20     0.0249   -0.8386    1.2091 C.3      1 ZINC000626935317    0.2000
21     H21    -0.9730   -0.8881    1.6449 H        1 ZINC000626935317    0.1100
22     C22     1.0052   -0.2901    2.2136 C.ar     1 ZINC000626935317   -0.1600
23     C23     0.7319   -0.3590    3.5710 C.ar     1 ZINC000626935317   -0.0500
24     C24     1.6632    0.1582    4.4588 C.ar     1 ZINC000626935317   -0.1700
25     C25     2.8244    0.7209    3.9647 C.ar     1 ZINC000626935317    0.1000
26     N26     3.0513    0.7693    2.6664 N.ar     1 ZINC000626935317   -0.4800
27     C27     2.1909    0.2829    1.7936 C.ar     1 ZINC000626935317    0.1200
28     H28     1.0048    1.8381    0.0023 H        1 ZINC000626935317    0.0600
29     H29    -0.5450    1.8219   -0.8730 H        1 ZINC000626935317    0.0800
30     H30    -0.5280    1.8123    0.9069 H        1 ZINC000626935317    0.0700
31     H31    -0.9505   -2.6669   -0.8614 H        1 ZINC000626935317    0.1100
32     H32     0.7674   -2.7541   -1.3622 H        1 ZINC000626935317    0.1200
33     H33     0.4991   -4.8445    0.4039 H        1 ZINC000626935317    0.4000
34     H34    -1.0486   -5.3688    2.8981 H        1 ZINC000626935317    0.1100
35     H35    -2.6922   -6.7702    1.7373 H        1 ZINC000626935317    0.1100
36     H36    -2.3641   -5.6535    0.3421 H        1 ZINC000626935317    0.0800
37     H37    -1.2806   -8.3267    0.4754 H        1 ZINC000626935317    0.1100
38     H38    -0.0644   -5.9095   -0.8146 H        1 ZINC000626935317    0.4100
39     H39    -2.0386   -7.7843   -2.8403 H        1 ZINC000626935317    0.1300
40     H40    -1.2592   -9.3376   -3.2251 H        1 ZINC000626935317    0.1300
41     H41    -1.9621   -9.0701   -1.6118 H        1 ZINC000626935317    0.1300
42     H42     0.9930   -6.9697    1.6306 H        1 ZINC000626935317    0.0900
43     H43    -0.3269   -7.6975    2.6451 H        1 ZINC000626935317    0.1100
44     H44    -0.1847   -0.8044    3.9284 H        1 ZINC000626935317    0.1400
45     H45     1.4830    0.1218    5.5231 H        1 ZINC000626935317    0.1400
46     H46     3.5546    1.1262    4.6495 H        1 ZINC000626935317    0.1600
47     H47     2.4112    0.3406    0.7379 H        1 ZINC000626935317    0.1500
@<TRIPOS>BOND
1     1     2     1
2     1     28    1
3     1     29    1
4     1     30    1
5     2     20    1
6     2     3     am
7     3     4     2
8     3     5     1
9     5     6     1
10    5     31    1
11    5     32    1
12    6     7     1
13    6     8     1
14    6     20    1
15    8     9     2
16    8     10    am
17    10    11    1
18    10    33    1
19    11    19    1
20    11    12    1
21    11    34    1
22    12    13    1
23    12    35    1
24    12    36    1
25    13    14    1
26    13    19    1
27    13    37    1
28    14    15    am
29    14    38    1
30    15    16    1
31    15    17    2
32    15    18    2
33    16    39    1
34    16    40    1
35    16    41    1
36    19    42    1
37    19    43    1
38    20    21    1
39    20    22    1
40    22    27    ar
41    22    23    ar
42    23    24    ar
43    23    44    1
44    24    25    ar
45    24    45    1
46    25    26    ar
47    25    46    1
48    26    27    ar
49    27    47    1
@<TRIPOS>SUBSTRUCTURE
1   ZINC000626935317 1     RESIDUE    1   A     ZIN   1
@<TRIPOS>MOLECULE
ZINC000611836474
42	43	1	0	0
SMALL
USER_CHARGES
@<TRIPOS>ATOM
1      C1     -1.0804    1.2620   -0.3966 C.3      1 ZINC000611836474   -0.1500
2      C2     -0.8046   -0.2400   -0.3014 C.3      1 ZINC000611836474   -0.1400
3      C3     -2.1308   -0.9971   -0.2071 C.3      1 ZINC000611836474    0.1300
4      N4     -1.8667   -2.4352   -0.1160 N.pl3    1 ZINC000611836474   -0.3900
5      N5     -1.7478   -3.3213   -1.1943 N.2      1 ZINC000611836474   -0.2900
6      C6     -1.5122   -4.5180   -0.7206 C.2      1 ZINC000611836474    0.0600
7      C7     -1.4724   -4.4386    0.6741 C.2      1 ZINC000611836474   -0.2800
8      C8     -1.6888   -3.1411    1.0239 C.2      1 ZINC000611836474    0.3000
9      N9     -1.7282   -2.6332    2.3223 N.am     1 ZINC000611836474   -0.6500
10     C10    -1.5419   -3.4558    3.3736 C.2      1 ZINC000611836474    0.5200
11     O11    -1.3399   -4.6377    3.1906 O.2      1 ZINC000611836474   -0.4700
12     C12    -1.5844   -2.9070    4.7765 C.3      1 ZINC000611836474    0.0700
13     H13    -2.5267   -2.3819    4.9328 H        1 ZINC000611836474    0.1100
14     C14    -0.4197   -1.9361    4.9799 C.3      1 ZINC000611836474   -0.1800
15     O15    -1.4773   -3.9820    5.7119 O.3      1 ZINC000611836474   -0.2700
16     C16    -2.0023   -3.7782    6.9489 C.ar     1 ZINC000611836474    0.1500
17     C17    -2.5051   -2.5326    7.2935 C.ar     1 ZINC000611836474   -0.2000
18     C18    -3.0383   -2.3277    8.5518 C.ar     1 ZINC000611836474   -0.0600
19     C19    -3.0705   -3.3629    9.4674 C.ar     1 ZINC000611836474   -0.1100
20     C20    -3.6522   -3.1361   10.8390 C.3      1 ZINC000611836474   -0.1100
21     C21    -2.5704   -4.6063    9.1268 C.ar     1 ZINC000611836474   -0.0500
22     C22    -2.0413   -4.8182    7.8678 C.ar     1 ZINC000611836474   -0.1200
23     Br23   -1.3574   -6.5186    7.4023 Br       1 ZINC000611836474   -0.0300
24     H24    -0.1356    1.8013   -0.4637 H        1 ZINC000611836474    0.0600
25     H25    -1.6791    1.4659   -1.2843 H        1 ZINC000611836474    0.0600
26     H26    -1.6230    1.5886    0.4906 H        1 ZINC000611836474    0.0600
27     H27    -0.2620   -0.5666   -1.1885 H        1 ZINC000611836474    0.0800
28     H28    -0.2059   -0.4439    0.5863 H        1 ZINC000611836474    0.0600
29     H29    -2.6734   -0.6704    0.6800 H        1 ZINC000611836474    0.0800
30     H30    -2.7295   -0.7931   -1.0949 H        1 ZINC000611836474    0.1000
31     H31    -1.3729   -5.4141   -1.3071 H        1 ZINC000611836474    0.1900
32     H32    -1.2975   -5.2598    1.3533 H        1 ZINC000611836474    0.1700
33     H33    -1.8896   -1.6880    2.4687 H        1 ZINC000611836474    0.4100
34     H34    -0.5014   -1.1161    4.2664 H        1 ZINC000611836474    0.0800
35     H35    -0.4505   -1.5392    5.9946 H        1 ZINC000611836474    0.0800
36     H36     0.5226   -2.4612    4.8236 H        1 ZINC000611836474    0.0800
37     H37    -2.4796   -1.7230    6.5790 H        1 ZINC000611836474    0.1400
38     H38    -3.4299   -1.3577    8.8203 H        1 ZINC000611836474    0.1300
39     H39    -4.7190   -3.3594   10.8227 H        1 ZINC000611836474    0.0700
40     H40    -3.1553   -3.7886   11.5568 H        1 ZINC000611836474    0.0700
41     H41    -3.5031   -2.0961   11.1294 H        1 ZINC000611836474    0.0700
42     H42    -2.5967   -5.4135    9.8439 H        1 ZINC000611836474    0.1400
@<TRIPOS>BOND
1     1     2     1
2     1     24    1
3     1     25    1
4     1     26    1
5     2     3     1
6     2     27    1
7     2     28    1
8     3     4     1
9     3     29    1
10    3     30    1
11    4     8     1
12    4     5     1
13    5     6     2
14    6     7     1
15    6     31    1
16    7     8     2
17    7     32    1
18    8     9     1
19    9     10    am
20    9     33    1
21    10    11    2
22    10    12    1
23    12    13    1
24    12    14    1
25    12    15    1
26    14    34    1
27    14    35    1
28    14    36    1
29    15    16    1
30    16    22    ar
31    16    17    ar
32    17    18    ar
33    17    37    1
34    18    19    ar
35    18    38    1
36    19    20    1
37    19    21    ar
38    20    39    1
39    20    40    1
40    20    41    1
41    21    22    ar
42    21    42    1
43    22    23    1
@<TRIPOS>SUBSTRUCTURE
1   ZINC000611836474 1     RESIDUE    1   A     ZIN   1
@<TRIPOS>MOLECULE
ZINC000065993627
54	56	1	0	0
SMALL
USER_CHARGES
@<TRIPOS>ATOM
1      C1     -1.2431    1.0428    0.0902 C.3      1 ZINC000065993627   -0.1200
2      C2     -0.5599   -0.3003    0.0744 C.ar     1 ZINC000065993627   -0.0700
3      C3     -0.5346   -1.0481   -1.0858 C.ar     1 ZINC000065993627   -0.1800
4      C4      0.0952   -2.2861   -1.1004 C.ar     1 ZINC000065993627    0.2000
5      N5      0.1213   -3.0440   -2.2762 N.pl3    1 ZINC000065993627   -0.6400
6      C6     -0.6124   -2.5867   -3.4589 C.3      1 ZINC000065993627    0.1000
7      C7      0.8825   -4.2948   -2.3247 C.3      1 ZINC000065993627    0.0900
8      C8      0.6991   -2.7712    0.0520 C.ar     1 ZINC000065993627   -0.1800
9      C9      0.6735   -2.0228    1.2123 C.ar     1 ZINC000065993627   -0.0800
10     C10     0.0490   -0.7831    1.2251 C.ar     1 ZINC000065993627    0.1100
11     N11     0.0235   -0.0233    2.4031 N.am     1 ZINC000065993627   -0.6800
12     C12     0.1293   -0.6328    3.6005 C.2      1 ZINC000065993627    0.7000
13     O13     0.1429   -1.8469    3.6657 O.2      1 ZINC000065993627   -0.5700
14     N14     0.2200    0.1035    4.7257 N.am     1 ZINC000065993627   -0.7400
15     C15     0.3350   -0.5590    6.0273 C.3      1 ZINC000065993627    0.2100
16     H16     0.9235   -1.4702    5.9205 H        1 ZINC000065993627    0.1000
17     C17    -1.0609   -0.9112    6.5454 C.3      1 ZINC000065993627   -0.1600
18     C18     1.0144    0.3663    7.0037 C.ar     1 ZINC000065993627   -0.1200
19     C19     0.7061    1.7143    7.0056 C.ar     1 ZINC000065993627   -0.0800
20     C20     1.3271    2.5650    7.8991 C.ar     1 ZINC000065993627   -0.1500
21     C21     2.2618    2.0652    8.7962 C.ar     1 ZINC000065993627    0.1800
22     N22     2.8925    2.9244    9.7032 N.am     1 ZINC000065993627   -0.5700
23     C23     3.9007    2.5276   10.6980 C.3      1 ZINC000065993627    0.0600
24     C24     4.2479    3.8466   11.4149 C.3      1 ZINC000065993627    0.0400
25     O25     3.4077    4.8380   10.7560 O.3      1 ZINC000065993627   -0.3200
26     C26     2.6804    4.2438    9.8032 C.2      1 ZINC000065993627    0.6400
27     O27     1.8929    4.8441    9.0990 O.2      1 ZINC000065993627   -0.5000
28     C28     2.5692    0.7110    8.7918 C.ar     1 ZINC000065993627   -0.1500
29     C29     1.9406   -0.1354    7.8995 C.ar     1 ZINC000065993627   -0.0800
30     H30    -0.5270    1.8180   -0.1826 H        1 ZINC000065993627    0.0700
31     H31    -2.0659    1.0404   -0.6246 H        1 ZINC000065993627    0.0700
32     H32    -1.6305    1.2416    1.0895 H        1 ZINC000065993627    0.0600
33     H33    -1.0047   -0.6708   -1.9819 H        1 ZINC000065993627    0.1200
34     H34     0.0358   -1.9559   -4.0672 H        1 ZINC000065993627    0.0500
35     H35    -0.9329   -3.4490   -4.0436 H        1 ZINC000065993627    0.0700
36     H36    -1.4861   -2.0150   -3.1459 H        1 ZINC000065993627    0.0700
37     H37     1.2836   -4.5146   -1.3353 H        1 ZINC000065993627    0.0800
38     H38     0.2273   -5.1068   -2.6398 H        1 ZINC000065993627    0.0500
39     H39     1.7030   -4.1935   -3.0351 H        1 ZINC000065993627    0.0500
40     H40     1.1885   -3.7339    0.0410 H        1 ZINC000065993627    0.1300
41     H41     1.1432   -2.4001    2.1087 H        1 ZINC000065993627    0.1500
42     H42    -0.0702    0.9410    2.3563 H        1 ZINC000065993627    0.4000
43     H43     0.2091    1.0720    4.6738 H        1 ZINC000065993627    0.4000
44     H44    -1.5523   -1.5805    5.8392 H        1 ZINC000065993627    0.0700
45     H45    -0.9754   -1.4041    7.5138 H        1 ZINC000065993627    0.0700
46     H46    -1.6495   -0.0000    6.6522 H        1 ZINC000065993627    0.0600
47     H47    -0.0207    2.1025    6.3073 H        1 ZINC000065993627    0.1300
48     H48     1.0862    3.6177    7.8999 H        1 ZINC000065993627    0.1600
49     H49     3.4820    1.8081   11.4016 H        1 ZINC000065993627    0.1000
50     H50     4.7820    2.1155   10.2065 H        1 ZINC000065993627    0.1000
51     H51     4.0024    3.7815   12.4749 H        1 ZINC000065993627    0.1100
52     H52     5.3021    4.0888   11.2801 H        1 ZINC000065993627    0.1100
53     H53     3.2960    0.3194    9.4880 H        1 ZINC000065993627    0.1300
54     H54     2.1790   -1.1887    7.8958 H        1 ZINC000065993627    0.1300
@<TRIPOS>BOND
1     1     2     1
2     1     30    1
3     1     31    1
4     1     32    1
5     2     10    ar
6     2     3     ar
7     3     4     ar
8     3     33    1
9     4     5     1
10    4     8     ar
11    5     6     1
12    5     7     1
13    6     34    1
14    6     35    1
15    6     36    1
16    7     37    1
17    7     38    1
18    7     39    1
19    8     9     ar
20    8     40    1
21    9     10    ar
22    9     41    1
23    10    11    1
24    11    12    am
25    11    42    1
26    12    13    2
27    12    14    am
28    14    15    1
29    14    43    1
30    15    16    1
31    15    17    1
32    15    18    1
33    17    44    1
34    17    45    1
35    17    46    1
36    18    29    ar
37    18    19    ar
38    19    20    ar
39    19    47    1
40    20    21    ar
41    20    48    1
42    21    22    1
43    21    28    ar
44    22    26    am
45    22    23    1
46    23    24    1
47    23    49    1
48    23    50    1
49    24    25    1
50    24    51    1
51    24    52    1
52    25    26    1
53    26    27    2
54    28    29    ar
55    28    53    1
56    29    54    1
@<TRIPOS>SUBSTRUCTURE
1   ZINC000065993627 1     RESIDUE    1   A     ZIN   1
@<TRIPOS>MOLECULE
ZINC001362587626
43	45	1	0	0
SMALL
USER_CHARGES
@<TRIPOS>ATOM
1      C1      0.3914    1.5890    0.1548 C.3      1 ZINC001362587626   -0.1600
2      C2      0.3187    0.0612    0.1168 C.3      1 ZINC001362587626    0.1300
3      H3     -0.7244   -0.2537    0.1469 H        1 ZINC001362587626    0.1200
4      N4      1.0289   -0.4904    1.2734 N.am     1 ZINC001362587626   -0.7100
5      C5      0.3943   -0.6184    2.4555 C.2      1 ZINC001362587626    0.5100
6      O6     -0.7646   -0.2771    2.5618 O.2      1 ZINC001362587626   -0.5000
7      C7      1.1249   -1.1859    3.6453 C.3      1 ZINC001362587626    0.1000
8      N8      0.2241   -1.2210    4.8001 N.pl3    1 ZINC001362587626   -0.3100
9      C9     -0.0703   -2.2980    5.5518 C.2      1 ZINC001362587626    0.1600
10     N10    -0.9094   -1.8948    6.4745 N.2      1 ZINC001362587626   -0.3000
11     N11    -1.1193   -0.6359    6.2987 N.2      1 ZINC001362587626   -0.0700
12     N12    -0.4316   -0.2243    5.2911 N.2      1 ZINC001362587626   -0.0700
13     C13     0.9586   -0.4407   -1.1518 C.2      1 ZINC001362587626    0.5100
14     O14     1.9140   -1.1860   -1.0954 O.2      1 ZINC001362587626   -0.5200
15     N15     0.4694   -0.0616   -2.3491 N.am     1 ZINC001362587626   -0.6600
16     C16     1.1212   -0.4499   -3.5269 C.ar     1 ZINC001362587626    0.1000
17     C17     1.1627    0.4124   -4.6144 C.ar     1 ZINC001362587626   -0.1000
18     C18     1.8057    0.0293   -5.7748 C.ar     1 ZINC001362587626   -0.1900
19     C19     2.4097   -1.2170   -5.8544 C.ar     1 ZINC001362587626    0.1200
20     O20     3.0423   -1.5938   -6.9975 O.3      1 ZINC001362587626   -0.2800
21     C21     3.1012   -0.6327   -8.0534 C.3      1 ZINC001362587626    0.0100
22     C22     4.4897    0.0096   -8.2330 C.3      1 ZINC001362587626    0.0200
23     O23     4.7343   -1.0531   -9.1762 O.3      1 ZINC001362587626   -0.3700
24     C24     3.3318   -1.2511   -9.4452 C.3      1 ZINC001362587626    0.0400
25     C25     2.3690   -2.0789   -4.7682 C.ar     1 ZINC001362587626   -0.1300
26     C26     1.7309   -1.6949   -3.6053 C.ar     1 ZINC001362587626   -0.0800
27     H27     1.4345    1.9040    0.1248 H        1 ZINC001362587626    0.0700
28     H28    -0.1370    1.9994   -0.7057 H        1 ZINC001362587626    0.0800
29     H29    -0.0715    1.9521    1.0724 H        1 ZINC001362587626    0.0800
30     H30     1.9557   -0.7634    1.1884 H        1 ZINC001362587626    0.4100
31     H31     1.4618   -2.1969    3.4164 H        1 ZINC001362587626    0.1500
32     H32     1.9864   -0.5591    3.8754 H        1 ZINC001362587626    0.1400
33     H33     0.3104   -3.3001    5.4199 H        1 ZINC001362587626    0.2400
34     H34    -0.3339    0.4800   -2.3953 H        1 ZINC001362587626    0.4100
35     H35     0.6919    1.3824   -4.5528 H        1 ZINC001362587626    0.1300
36     H36     1.8380    0.6999   -6.6208 H        1 ZINC001362587626    0.1400
37     H37     2.2825    0.0861   -8.0212 H        1 ZINC001362587626    0.0900
38     H38     4.4617    1.0016   -8.6838 H        1 ZINC001362587626    0.1000
39     H39     5.1163   -0.0384   -7.3424 H        1 ZINC001362587626    0.1000
40     H40     3.0400   -2.2989   -9.5161 H        1 ZINC001362587626    0.1000
41     H41     2.9502   -0.6441  -10.2662 H        1 ZINC001362587626    0.1000
42     H42     2.8395   -3.0490   -4.8308 H        1 ZINC001362587626    0.1400
43     H43     1.6997   -2.3658   -2.7595 H        1 ZINC001362587626    0.1500
@<TRIPOS>BOND
1     1     2     1
2     1     27    1
3     1     28    1
4     1     29    1
5     2     3     1
6     2     4     1
7     2     13    1
8     4     5     am
9     4     30    1
10    5     6     2
11    5     7     1
12    7     8     1
13    7     31    1
14    7     32    1
15    8     12    1
16    8     9     1
17    9     10    2
18    9     33    1
19    10    11    1
20    11    12    2
21    13    14    2
22    13    15    am
23    15    16    1
24    15    34    1
25    16    26    ar
26    16    17    ar
27    17    18    ar
28    17    35    1
29    18    19    ar
30    18    36    1
31    19    20    1
32    19    25    ar
33    20    21    1
34    21    24    1
35    21    22    1
36    21    37    1
37    22    23    1
38    22    38    1
39    22    39    1
40    23    24    1
41    24    40    1
42    24    41    1
43    25    26    ar
44    25    42    1
45    26    43    1
@<TRIPOS>SUBSTRUCTURE
1   ZINC001362587626 1     RESIDUE    1   A     ZIN   1
@<TRIPOS>MOLECULE
ZINC000962855438
53	56	1	0	0
SMALL
USER_CHARGES
@<TRIPOS>ATOM
1      C1     -1.0194    2.4114    0.3277 C.3      1 ZINC000962855438   -0.1100
2      C2     -0.5447    0.9844    0.2299 C.2      1 ZINC000962855438   -0.1700
3      C3     -0.3291    0.1956    1.4526 C.2      1 ZINC000962855438    0.5600
4      O4      0.0539   -0.9560    1.3737 O.2      1 ZINC000962855438   -0.5400
5      N5     -0.5560    0.7490    2.6604 N.am     1 ZINC000962855438   -0.7100
6      C6     -0.3412   -0.0366    3.8782 C.3      1 ZINC000962855438    0.1500
7      H7      0.4951   -0.7245    3.7543 H        1 ZINC000962855438    0.1200
8      C8     -1.6293   -0.7956    4.2836 C.3      1 ZINC000962855438    0.1000
9      N9     -1.4991   -1.0106    5.7363 N.am     1 ZINC000962855438   -0.6100
10     C10    -2.1064   -1.9838    6.4438 C.2      1 ZINC000962855438    0.5800
11     O11    -2.9027   -2.7243    5.8998 O.2      1 ZINC000962855438   -0.5200
12     C12    -1.8050   -2.1505    7.8784 C.ar     1 ZINC000962855438   -0.1500
13     C13    -1.7897   -1.0402    8.7226 C.ar     1 ZINC000962855438   -0.0600
14     C14    -1.5076   -1.1927   10.0631 C.ar     1 ZINC000962855438   -0.1500
15     C15    -1.2345   -2.4516   10.5744 C.ar     1 ZINC000962855438   -0.0500
16     C16    -1.2441   -3.5541    9.7494 C.ar     1 ZINC000962855438   -0.1800
17     C17    -1.5383   -3.4302    8.3982 C.ar     1 ZINC000962855438    0.1600
18     O18    -1.5150   -4.6373    7.7751 O.3      1 ZINC000962855438   -0.2800
19     C19    -0.7738   -5.5714    8.5784 C.3      1 ZINC000962855438    0.0700
20     H20     0.2814   -5.5635    8.3053 H        1 ZINC000962855438    0.0900
21     C21    -1.3552   -6.9805    8.4467 C.3      1 ZINC000962855438   -0.1500
22     C22    -0.9787   -5.0241   10.0126 C.3      1 ZINC000962855438   -0.1100
23     C23    -0.5965    0.0119    6.2852 C.3      1 ZINC000962855438    0.0700
24     C24    -0.1239    0.8878    5.1052 C.3      1 ZINC000962855438    0.0900
25     H25     0.9297    1.1452    5.2137 H        1 ZINC000962855438    0.0900
26     O26    -0.9226    2.0682    5.0002 O.3      1 ZINC000962855438   -0.5600
27     C27    -0.3209    0.4383   -0.9619 C.2      1 ZINC000962855438   -0.0600
28     C28     0.1357   -0.9089   -1.4806 C.3      1 ZINC000962855438   -0.1000
29     C29     0.6554   -0.1749   -2.7267 C.3      1 ZINC000962855438   -0.1400
30     C30    -0.4152    0.8841   -2.4057 C.3      1 ZINC000962855438   -0.1100
31     H31    -0.1585    3.0773    0.3869 H        1 ZINC000962855438    0.0700
32     H32    -1.6103    2.6589   -0.5542 H        1 ZINC000962855438    0.0700
33     H33    -1.6326    2.5299    1.2210 H        1 ZINC000962855438    0.0700
34     H34    -0.8615    1.6675    2.7233 H        1 ZINC000962855438    0.4100
35     H35    -2.5100   -0.1911    4.0670 H        1 ZINC000962855438    0.0800
36     H36    -1.6865   -1.7512    3.7624 H        1 ZINC000962855438    0.0900
37     H37    -1.9992   -0.0583    8.3247 H        1 ZINC000962855438    0.1400
38     H38    -1.4989   -0.3314   10.7147 H        1 ZINC000962855438    0.1400
39     H39    -1.0127   -2.5685   11.6249 H        1 ZINC000962855438    0.1300
40     H40    -1.2840   -7.3075    7.4094 H        1 ZINC000962855438    0.0700
41     H41    -0.7949   -7.6656    9.0829 H        1 ZINC000962855438    0.0800
42     H42    -2.4009   -6.9723    8.7542 H        1 ZINC000962855438    0.0700
43     H43    -0.0768   -5.1522   10.6110 H        1 ZINC000962855438    0.1000
44     H44    -1.8339   -5.4998   10.4926 H        1 ZINC000962855438    0.1000
45     H45    -1.1292    0.6248    7.0123 H        1 ZINC000962855438    0.0800
46     H46     0.2614   -0.4662    6.7580 H        1 ZINC000962855438    0.0800
47     H47    -0.8806    2.6419    5.7774 H        1 ZINC000962855438    0.3900
48     H48     0.9252   -1.3619   -0.8809 H        1 ZINC000962855438    0.0900
49     H49    -0.6842   -1.5959   -1.6899 H        1 ZINC000962855438    0.1000
50     H50     1.6796    0.1854   -2.6304 H        1 ZINC000962855438    0.0900
51     H51     0.4764   -0.7098   -3.6594 H        1 ZINC000962855438    0.0800
52     H52    -1.3817    0.6802   -2.8667 H        1 ZINC000962855438    0.1000
53     H53    -0.0772    1.9079   -2.5660 H        1 ZINC000962855438    0.0800
@<TRIPOS>BOND
1     1     2     1
2     1     31    1
3     1     32    1
4     1     33    1
5     2     3     1
6     2     27    2
7     3     4     2
8     3     5     am
9     5     6     1
10    5     34    1
11    6     7     1
12    6     24    1
13    6     8     1
14    8     9     1
15    8     35    1
16    8     36    1
17    9     10    am
18    9     23    1
19    10    11    2
20    10    12    1
21    12    17    ar
22    12    13    ar
23    13    14    ar
24    13    37    1
25    14    15    ar
26    14    38    1
27    15    16    ar
28    15    39    1
29    16    22    1
30    16    17    ar
31    17    18    1
32    18    19    1
33    19    20    1
34    19    21    1
35    19    22    1
36    21    40    1
37    21    41    1
38    21    42    1
39    22    43    1
40    22    44    1
41    23    24    1
42    23    45    1
43    23    46    1
44    24    25    1
45    24    26    1
46    26    47    1
47    27    30    1
48    27    28    1
49    28    29    1
50    28    48    1
51    28    49    1
52    29    30    1
53    29    50    1
54    29    51    1
55    30    52    1
56    30    53    1
@<TRIPOS>SUBSTRUCTURE
1   ZINC000962855438 1     RESIDUE    1   A     ZIN   1
@<TRIPOS>MOLECULE
ZINC001058772245
41	41	1	0	0
SMALL
USER_CHARGES
@<TRIPOS>ATOM
1      C1      0.0476    1.1501   -0.2699 C.3      1 ZINC001058772245   -0.1700
2      C2     -0.2585   -0.3461   -0.1776 C.3      1 ZINC001058772245   -0.1400
3      C3      0.7261   -1.0094    0.7875 C.3      1 ZINC001058772245   -0.1500
4      C4     -1.6650   -0.5409    0.3271 C.2      1 ZINC001058772245    0.5300
5      O5     -2.4300   -1.2652   -0.2738 O.2      1 ZINC001058772245   -0.5200
6      N6     -2.0728    0.0897    1.4463 N.am     1 ZINC001058772245   -0.5900
7      C7     -1.1292    0.9096    2.2102 C.3      1 ZINC001058772245    0.0800
8      C8     -1.3113    2.3813    1.8336 C.3      1 ZINC001058772245    0.0400
9      O9     -2.6372    2.7976    2.1662 O.3      1 ZINC001058772245   -0.5700
10     C10    -3.4596   -0.0448    1.8989 C.3      1 ZINC001058772245    0.1100
11     C11    -3.5747   -1.2453    2.8404 C.3      1 ZINC001058772245    0.1000
12     N12    -4.9615   -1.3798    3.2930 N.am     1 ZINC001058772245   -0.7100
13     C13    -5.3019   -2.3751    4.1355 C.2      1 ZINC001058772245    0.6000
14     O14    -4.4577   -3.1618    4.5202 O.2      1 ZINC001058772245   -0.5300
15     C15    -6.6960   -2.5103    4.5905 C.2      1 ZINC001058772245    0.0000
16     C16    -7.1061   -3.4805    5.4383 C.2      1 ZINC001058772245   -0.2200
17     S17    -8.7820   -3.2951    5.7196 S.3      1 ZINC001058772245    0.2300
18     C18    -8.8386   -1.9340    4.6898 C.2      1 ZINC001058772245    0.0000
19     N19    -7.6722   -1.6827    4.2086 N.2      1 ZINC001058772245   -0.4400
20     C20    -0.1211   -0.9812   -1.5627 C.3      1 ZINC001058772245    0.2900
21     F21    -1.0214   -0.3746   -2.4452 F        1 ZINC001058772245   -0.1900
22     F22     1.1847   -0.8003   -2.0313 F        1 ZINC001058772245   -0.2000
23     H23     0.9294    1.3029   -0.8921 H        1 ZINC001058772245    0.0800
24     H24    -0.8033    1.6684   -0.7121 H        1 ZINC001058772245    0.0700
25     H25     0.2346    1.5451    0.7287 H        1 ZINC001058772245    0.0900
26     H26     0.4563   -0.7563    1.8128 H        1 ZINC001058772245    0.0800
27     H27     0.6885   -2.0911    0.6584 H        1 ZINC001058772245    0.0700
28     H28     1.7350   -0.6534    0.5789 H        1 ZINC001058772245    0.0900
29     H29    -1.3169    0.7814    3.2763 H        1 ZINC001058772245    0.0900
30     H30    -0.1098    0.5992    1.9809 H        1 ZINC001058772245    0.1200
31     H31    -0.5914    2.9885    2.3824 H        1 ZINC001058772245    0.0600
32     H32    -1.1495    2.5050    0.7628 H        1 ZINC001058772245    0.0700
33     H33    -2.8238    3.7225    1.9544 H        1 ZINC001058772245    0.3800
34     H34    -3.7591    0.8607    2.4265 H        1 ZINC001058772245    0.1000
35     H35    -4.1100   -0.1952    1.0372 H        1 ZINC001058772245    0.0900
36     H36    -3.2753   -2.1509    2.3128 H        1 ZINC001058772245    0.0700
37     H37    -2.9243   -1.0949    3.7021 H        1 ZINC001058772245    0.0700
38     H38    -5.6348   -0.7525    2.9863 H        1 ZINC001058772245    0.4100
39     H39    -6.4778   -4.2469    5.8675 H        1 ZINC001058772245    0.1900
40     H40    -9.7289   -1.3617    4.4751 H        1 ZINC001058772245    0.2100
41     H41    -0.3391   -2.0471   -1.4970 H        1 ZINC001058772245    0.1200
@<TRIPOS>BOND
1     1     2     1
2     1     23    1
3     1     24    1
4     1     25    1
5     2     3     1
6     2     4     1
7     2     20    1
8     3     26    1
9     3     27    1
10    3     28    1
11    4     5     2
12    4     6     am
13    6     7     1
14    6     10    1
15    7     8     1
16    7     29    1
17    7     30    1
18    8     9     1
19    8     31    1
20    8     32    1
21    9     33    1
22    10    11    1
23    10    34    1
24    10    35    1
25    11    12    1
26    11    36    1
27    11    37    1
28    12    13    am
29    12    38    1
30    13    14    2
31    13    15    1
32    15    19    1
33    15    16    2
34    16    17    1
35    16    39    1
36    17    18    1
37    18    19    2
38    18    40    1
39    20    21    1
40    20    22    1
41    20    41    1
@<TRIPOS>SUBSTRUCTURE
1   ZINC001058772245 1     RESIDUE    1   A     ZIN   1
@<TRIPOS>MOLECULE
ZINC000821214121
45	46	1	0	0
SMALL
USER_CHARGES
@<TRIPOS>ATOM
1      C1     -1.0011   -1.7459   -0.0465 C.3      1 ZINC000821214121   -0.1500
2      C2      0.3657   -1.8134   -0.7307 C.3      1 ZINC000821214121    0.0500
3      N3      0.6775   -0.5095   -1.3313 N.3      1 ZINC000821214121   -0.5200
4      C4      2.0993   -0.4217   -1.6902 C.3      1 ZINC000821214121    0.0600
5      C5      2.9490   -0.4490   -0.4181 C.3      1 ZINC000821214121   -0.1200
6      C6      4.4298   -0.3576   -0.7918 C.3      1 ZINC000821214121    0.0800
7      O7      5.2234   -0.3831    0.3963 O.3      1 ZINC000821214121   -0.5700
8      C8     -0.1768   -0.2493   -2.4976 C.3      1 ZINC000821214121    0.0400
9      C9     -0.1184    1.2156   -2.8464 C.2      1 ZINC000821214121    0.5000
10     O10     0.4836    1.9864   -2.1287 O.2      1 ZINC000821214121   -0.4800
11     N11    -0.7348    1.6694   -3.9556 N.am     1 ZINC000821214121   -0.6300
12     C12    -0.6808    3.0242   -4.2781 C.2      1 ZINC000821214121    0.0800
13     C13    -1.2671    3.5992   -5.3661 C.2      1 ZINC000821214121   -0.1000
14     C14    -2.0523    2.8297   -6.3607 C.2      1 ZINC000821214121    0.2900
15     N15    -2.2908    1.5310   -6.3337 N.2      1 ZINC000821214121   -0.3300
16     N16    -3.0690    1.2589   -7.4709 N.pl3    1 ZINC000821214121   -0.2900
17     N17    -3.2428    2.3768   -8.0890 N.2      1 ZINC000821214121    0.0200
18     N18    -2.6549    3.3235   -7.4479 N.2      1 ZINC000821214121   -0.2900
19     C19    -1.0628    4.9757   -5.4607 C.2      1 ZINC000821214121   -0.0500
20     C20    -1.6267    5.8016   -6.5881 C.3      1 ZINC000821214121   -0.1000
21     C21    -0.3348    5.5052   -4.4834 C.2      1 ZINC000821214121   -0.2400
22     C22     0.0203    6.9652   -4.3675 C.3      1 ZINC000821214121   -0.0800
23     S23     0.1482    4.2599   -3.3410 S.3      1 ZINC000821214121    0.2600
24     H24    -1.0114   -0.9192    0.6639 H        1 ZINC000821214121    0.0700
25     H25    -1.7759   -1.5897   -0.7971 H        1 ZINC000821214121    0.0500
26     H26    -1.1897   -2.6808    0.4813 H        1 ZINC000821214121    0.0600
27     H27     1.1286   -2.0660    0.0057 H        1 ZINC000821214121    0.0900
28     H28     0.3452   -2.5763   -1.5089 H        1 ZINC000821214121    0.0400
29     H29     2.3669   -1.2671   -2.3241 H        1 ZINC000821214121    0.0400
30     H30     2.2813    0.5083   -2.2287 H        1 ZINC000821214121    0.0800
31     H31     2.6814    0.3963    0.2159 H        1 ZINC000821214121    0.0800
32     H32     2.7670   -1.3790    0.1205 H        1 ZINC000821214121    0.0700
33     H33     4.6974   -1.2029   -1.4257 H        1 ZINC000821214121    0.0400
34     H34     4.6118    0.5724   -1.3304 H        1 ZINC000821214121    0.0500
35     H35     6.1753   -0.3285    0.2348 H        1 ZINC000821214121    0.3800
36     H36     0.1749   -0.8387   -3.3444 H        1 ZINC000821214121    0.0700
37     H37    -1.2048   -0.5265   -2.2641 H        1 ZINC000821214121    0.1200
38     H38    -1.2162    1.0531   -4.5296 H        1 ZINC000821214121    0.4200
39     H39    -3.4111    0.3923   -7.7407 H        1 ZINC000821214121    0.4700
40     H40    -2.6166    6.1651   -6.3123 H        1 ZINC000821214121    0.0700
41     H41    -0.9693    6.6492   -6.7816 H        1 ZINC000821214121    0.0700
42     H42    -1.7020    5.1879   -7.4857 H        1 ZINC000821214121    0.0900
43     H43    -0.7482    7.4815   -3.7924 H        1 ZINC000821214121    0.0700
44     H44     0.9812    7.0665   -3.8630 H        1 ZINC000821214121    0.0700
45     H45     0.0848    7.4035   -5.3634 H        1 ZINC000821214121    0.0800
@<TRIPOS>BOND
1     1     2     1
2     1     24    1
3     1     25    1
4     1     26    1
5     2     3     1
6     2     27    1
7     2     28    1
8     3     4     1
9     3     8     1
10    4     5     1
11    4     29    1
12    4     30    1
13    5     6     1
14    5     31    1
15    5     32    1
16    6     7     1
17    6     33    1
18    6     34    1
19    7     35    1
20    8     9     1
21    8     36    1
22    8     37    1
23    9     10    2
24    9     11    am
25    11    12    1
26    11    38    1
27    12    23    1
28    12    13    2
29    13    14    1
30    13    19    1
31    14    18    1
32    14    15    2
33    15    16    1
34    16    17    1
35    16    39    1
36    17    18    2
37    19    20    1
38    19    21    2
39    20    40    1
40    20    41    1
41    20    42    1
42    21    22    1
43    21    23    1
44    22    43    1
45    22    44    1
46    22    45    1
@<TRIPOS>SUBSTRUCTURE
1   ZINC000821214121 1     RESIDUE    1   A     ZIN   1
@<TRIPOS>MOLECULE
ZINC000676564986
42	45	1	0	0
SMALL
USER_CHARGES
@<TRIPOS>ATOM
1      C1      0.0732    1.4624   -0.0012 C.3      1 ZINC000676564986    0.0800
2      N2      0.0832   -0.0026   -0.0080 N.pl3    1 ZINC000676564986   -0.4800
3      C3      0.0735   -0.8042   -1.1105 C.2      1 ZINC000676564986    0.2500
4      N4      0.0870   -2.0549   -0.7510 N.2      1 ZINC000676564986   -0.4600
5      C5      0.1061   -2.1352    0.6012 C.ar     1 ZINC000676564986   -0.1100
6      C6      0.1256   -3.1909    1.5282 C.ar     1 ZINC000676564986    0.5100
7      N7      0.1292   -4.5075    1.1019 N.pl3    1 ZINC000676564986   -0.6900
8      C8      0.1496   -5.5951    2.0832 C.3      1 ZINC000676564986    0.1700
9      C9      0.1494   -6.9199    1.3648 C.ar     1 ZINC000676564986   -0.0800
10     C10    -1.0493   -7.5320    1.0467 C.ar     1 ZINC000676564986   -0.1100
11     C11    -1.0533   -8.7458    0.3885 C.ar     1 ZINC000676564986   -0.0700
12     C12     0.1491   -9.3525    0.0458 C.ar     1 ZINC000676564986   -0.1300
13     S13     0.1489  -10.9011   -0.7946 S.3      1 ZINC000676564986   -0.0100
14     C14     0.3106  -12.0648    0.5186 C.ar     1 ZINC000676564986   -0.1000
15     C15     0.2770  -11.6336    1.8393 C.ar     1 ZINC000676564986   -0.1200
16     C16     0.4035  -12.5484    2.8658 C.ar     1 ZINC000676564986   -0.1000
17     C17     0.5635  -13.8923    2.5810 C.ar     1 ZINC000676564986   -0.1200
18     C18     0.5975  -14.3250    1.2678 C.ar     1 ZINC000676564986   -0.1000
19     C19     0.4663  -13.4165    0.2362 C.ar     1 ZINC000676564986   -0.1000
20     C20     1.3517   -8.7345    0.3671 C.ar     1 ZINC000676564986   -0.0700
21     C21     1.3480   -7.5180    1.0203 C.ar     1 ZINC000676564986   -0.1100
22     N22     0.1409   -2.8957    2.8240 N.ar     1 ZINC000676564986   -0.5900
23     C23     0.1381   -1.6425    3.2399 C.ar     1 ZINC000676564986    0.3600
24     N24     0.1197   -0.6220    2.4083 N.ar     1 ZINC000676564986   -0.5600
25     C25     0.1098   -0.8193    1.0942 C.ar     1 ZINC000676564986    0.3000
26     H26     1.0982    1.8328   -0.0192 H        1 ZINC000676564986    0.0800
27     H27    -0.4600    1.8262   -0.8796 H        1 ZINC000676564986    0.0900
28     H28    -0.4259    1.8182    0.9001 H        1 ZINC000676564986    0.0900
29     H29     0.0566   -0.4532   -2.1317 H        1 ZINC000676564986    0.2200
30     H30     0.1182   -4.7103    0.1534 H        1 ZINC000676564986    0.4200
31     H31     1.0471   -5.5144    2.6964 H        1 ZINC000676564986    0.0800
32     H32    -0.7326   -5.5269    2.7197 H        1 ZINC000676564986    0.0800
33     H33    -1.9834   -7.0601    1.3136 H        1 ZINC000676564986    0.1300
34     H34    -1.9897   -9.2234    0.1407 H        1 ZINC000676564986    0.1400
35     H35     0.1524  -10.5843    2.0625 H        1 ZINC000676564986    0.1200
36     H36     0.3778  -12.2140    3.8924 H        1 ZINC000676564986    0.1300
37     H37     0.6626  -14.6055    3.3859 H        1 ZINC000676564986    0.1300
38     H38     0.7226  -15.3751    1.0490 H        1 ZINC000676564986    0.1300
39     H39     0.4926  -13.7551   -0.7890 H        1 ZINC000676564986    0.1300
40     H40     2.2880   -9.2031    0.1023 H        1 ZINC000676564986    0.1300
41     H41     2.2821   -7.0372    1.2703 H        1 ZINC000676564986    0.1300
42     H42     0.1509   -1.4472    4.3020 H        1 ZINC000676564986    0.2000
@<TRIPOS>BOND
1     1     2     1
2     1     26    1
3     1     27    1
4     1     28    1
5     2     25    1
6     2     3     1
7     3     4     2
8     3     29    1
9     4     5     1
10    5     25    ar
11    5     6     ar
12    6     7     1
13    6     22    ar
14    7     8     1
15    7     30    1
16    8     9     1
17    8     31    1
18    8     32    1
19    9     21    ar
20    9     10    ar
21    10    11    ar
22    10    33    1
23    11    12    ar
24    11    34    1
25    12    13    1
26    12    20    ar
27    13    14    1
28    14    19    ar
29    14    15    ar
30    15    16    ar
31    15    35    1
32    16    17    ar
33    16    36    1
34    17    18    ar
35    17    37    1
36    18    19    ar
37    18    38    1
38    19    39    1
39    20    21    ar
40    20    40    1
41    21    41    1
42    22    23    ar
43    23    24    ar
44    23    42    1
45    24    25    ar
@<TRIPOS>SUBSTRUCTURE
1   ZINC000676564986 1     RESIDUE    1   A     ZIN   1
@<TRIPOS>MOLECULE
ZINC000469435497
51	54	1	0	0
SMALL
USER_CHARGES
@<TRIPOS>ATOM
1      C1      1.2903   -0.9888    3.7939 C.3      1 ZINC000469435497   -0.1600
2      C2      1.2447    0.1645    2.7896 C.3      1 ZINC000469435497    0.1000
3      C3      0.2626    1.2433    3.2505 C.3      1 ZINC000469435497   -0.1400
4      C4      2.6564    0.7591    2.5735 C.3      1 ZINC000469435497   -0.1000
5      C5      3.1462   -0.0246    1.3711 C.ar     1 ZINC000469435497   -0.1500
6      C6      4.4000   -0.1954    0.8292 C.ar     1 ZINC000469435497   -0.0700
7      C7      4.5656   -0.9914   -0.2978 C.ar     1 ZINC000469435497    0.1100
8      N8      5.8393   -1.1694   -0.8538 N.am     1 ZINC000469435497   -0.6600
9      C9      6.9258   -1.1886   -0.0566 C.2      1 ZINC000469435497    0.5100
10     O10     6.7946   -1.1478    1.1485 O.2      1 ZINC000469435497   -0.5200
11     C11     8.3038   -1.2606   -0.6625 C.3      1 ZINC000469435497    0.1000
12     N12     9.3069   -1.2684    0.4051 N.am     1 ZINC000469435497   -0.7200
13     C13    10.6177   -1.3290    0.0977 C.2      1 ZINC000469435497    0.5700
14     O14    10.9676   -1.3771   -1.0654 O.2      1 ZINC000469435497   -0.5300
15     C15    11.6301   -1.3369    1.1752 C.ar     1 ZINC000469435497   -0.1400
16     C16    11.2325   -1.2875    2.5119 C.ar     1 ZINC000469435497   -0.0800
17     C17    12.1834   -1.2953    3.5099 C.ar     1 ZINC000469435497   -0.1100
18     C18    13.5319   -1.3518    3.1938 C.ar     1 ZINC000469435497   -0.0700
19     C19    14.7478   -1.3709    4.0961 C.3      1 ZINC000469435497   -0.0900
20     C20    15.9032   -1.8769    3.2068 C.3      1 ZINC000469435497   -0.1200
21     C21    15.4437   -1.4565    1.7947 C.3      1 ZINC000469435497   -0.0800
22     C22    13.9326   -1.4009    1.8698 C.ar     1 ZINC000469435497   -0.1100
23     C23    12.9877   -1.3995    0.8615 C.ar     1 ZINC000469435497   -0.0400
24     C24     3.4617   -1.6094   -0.8694 C.ar     1 ZINC000469435497   -0.1000
25     C25     2.2067   -1.4326   -0.3258 C.ar     1 ZINC000469435497   -0.1200
26     C26     2.0349   -0.6335    0.8016 C.ar     1 ZINC000469435497    0.1000
27     O27     0.8970   -0.3146    1.4794 O.3      1 ZINC000469435497   -0.3000
28     H28     2.0176   -1.7303    3.4630 H        1 ZINC000469435497    0.0600
29     H29     1.5805   -0.6070    4.7727 H        1 ZINC000469435497    0.0800
30     H30     0.3054   -1.4509    3.8616 H        1 ZINC000469435497    0.0700
31     H31     0.5845    1.6403    4.2133 H        1 ZINC000469435497    0.0800
32     H32     0.2361    2.0483    2.5161 H        1 ZINC000469435497    0.0700
33     H33    -0.7325    0.8099    3.3506 H        1 ZINC000469435497    0.0700
34     H34     2.6001    1.8240    2.3478 H        1 ZINC000469435497    0.0900
35     H35     3.2917    0.5793    3.4408 H        1 ZINC000469435497    0.0900
36     H36     5.2540    0.2890    1.2791 H        1 ZINC000469435497    0.1400
37     H37     5.9391   -1.2790   -1.8124 H        1 ZINC000469435497    0.4200
38     H38     8.3940   -2.1726   -1.2525 H        1 ZINC000469435497    0.1100
39     H39     8.4638   -0.3948   -1.3051 H        1 ZINC000469435497    0.1100
40     H40     9.0277   -1.2300    1.3333 H        1 ZINC000469435497    0.4100
41     H41    10.1832   -1.2431    2.7638 H        1 ZINC000469435497    0.1300
42     H42    11.8758   -1.2567    4.5445 H        1 ZINC000469435497    0.1300
43     H43    14.9635   -0.3668    4.4614 H        1 ZINC000469435497    0.0900
44     H44    14.5878   -2.0520    4.9320 H        1 ZINC000469435497    0.0800
45     H45    16.8396   -1.3859    3.4717 H        1 ZINC000469435497    0.0800
46     H46    15.9995   -2.9604    3.2763 H        1 ZINC000469435497    0.0700
47     H47    15.8462   -0.4755    1.5425 H        1 ZINC000469435497    0.0800
48     H48    15.7588   -2.1961    1.0587 H        1 ZINC000469435497    0.0800
49     H49    13.3010   -1.4435   -0.1712 H        1 ZINC000469435497    0.1400
50     H50     3.5863   -2.2311   -1.7437 H        1 ZINC000469435497    0.1400
51     H51     1.3528   -1.9165   -0.7765 H        1 ZINC000469435497    0.1300
@<TRIPOS>BOND
1     1     2     1
2     1     28    1
3     1     29    1
4     1     30    1
5     2     27    1
6     2     3     1
7     2     4     1
8     3     31    1
9     3     32    1
10    3     33    1
11    4     5     1
12    4     34    1
13    4     35    1
14    5     26    ar
15    5     6     ar
16    6     7     ar
17    6     36    1
18    7     8     1
19    7     24    ar
20    8     9     am
21    8     37    1
22    9     10    2
23    9     11    1
24    11    12    1
25    11    38    1
26    11    39    1
27    12    13    am
28    12    40    1
29    13    14    2
30    13    15    1
31    15    23    ar
32    15    16    ar
33    16    17    ar
34    16    41    1
35    17    18    ar
36    17    42    1
37    18    22    ar
38    18    19    1
39    19    20    1
40    19    43    1
41    19    44    1
42    20    21    1
43    20    45    1
44    20    46    1
45    21    22    1
46    21    47    1
47    21    48    1
48    22    23    ar
49    23    49    1
50    24    25    ar
51    24    50    1
52    25    26    ar
53    25    51    1
54    26    27    1
@<TRIPOS>SUBSTRUCTURE
1   ZINC000469435497 1     RESIDUE    1   A     ZIN   1
@<TRIPOS>MOLECULE
ZINC000771225867
37	38	1	0	0
SMALL
USER_CHARGES
@<TRIPOS>ATOM
1      C1     -0.0173    1.4248    0.0099 C.3      1 ZINC000771225867    0.0400
2      O2      0.0021   -0.0041    0.0020 O.3      1 ZINC000771225867   -0.3600
3      C3      0.6017   -0.6030   -1.0485 C.2      1 ZINC000771225867    0.5500
4      O4      1.0945    0.0715   -1.9336 O.2      1 ZINC000771225867   -0.4900
5      C5      0.6572   -2.0154   -1.1207 C.2      1 ZINC000771225867   -0.3400
6      C6      1.2365   -2.7509   -2.1215 C.2      1 ZINC000771225867    0.2700
7      Cl7     2.0150   -2.0306   -3.4958 Cl       1 ZINC000771225867    0.0400
8      N8      1.1502   -4.0455   -1.9476 N.2      1 ZINC000771225867   -0.5500
9      C9      0.5416   -4.4645   -0.8750 C.2      1 ZINC000771225867    0.3400
10     N10     0.3645   -5.7893   -0.5402 N.pl3    1 ZINC000771225867   -0.6700
11     C11     0.8781   -6.8421   -1.4199 C.3      1 ZINC000771225867    0.1700
12     C12     0.5557   -8.1910   -0.8303 C.ar     1 ZINC000771225867   -0.0800
13     C13     1.4453   -8.7956    0.0382 C.ar     1 ZINC000771225867   -0.1300
14     C14     1.1524  -10.0333    0.5809 C.ar     1 ZINC000771225867   -0.0800
15     C15    -0.0303  -10.6687    0.2563 C.ar     1 ZINC000771225867   -0.2000
16     C16    -0.9249  -10.0640   -0.6151 C.ar     1 ZINC000771225867    0.1300
17     O17    -2.0894  -10.6869   -0.9357 O.3      1 ZINC000771225867   -0.2900
18     C18    -2.3282  -11.9630   -0.3387 C.3      1 ZINC000771225867    0.0400
19     C19    -3.6576  -12.4960   -0.8074 C.2      1 ZINC000771225867    0.5200
20     N20    -4.0950  -13.6940   -0.3714 N.am     1 ZINC000771225867   -0.8500
21     O21    -4.3339  -11.8469   -1.5770 O.2      1 ZINC000771225867   -0.5200
22     C22    -0.6313   -8.8199   -1.1538 C.ar     1 ZINC000771225867   -0.1200
23     S23     0.0008   -3.1426    0.0636 S.3      1 ZINC000771225867    0.2200
24     H24     1.0053    1.8021    0.0021 H        1 ZINC000771225867    0.0600
25     H25    -0.5445    1.7859   -0.8732 H        1 ZINC000771225867    0.0600
26     H26    -0.5275    1.7763    0.9067 H        1 ZINC000771225867    0.1000
27     H27    -0.1003   -6.0248    0.2780 H        1 ZINC000771225867    0.4200
28     H28     0.4129   -6.7542   -2.4018 H        1 ZINC000771225867    0.0900
29     H29     1.9585   -6.7378   -1.5191 H        1 ZINC000771225867    0.0900
30     H30     2.3707   -8.3006    0.2929 H        1 ZINC000771225867    0.1300
31     H31     1.8491  -10.5037    1.2589 H        1 ZINC000771225867    0.1300
32     H32    -0.2584  -11.6355    0.6802 H        1 ZINC000771225867    0.1300
33     H33    -1.5369  -12.6539   -0.6293 H        1 ZINC000771225867    0.1000
34     H34    -2.3403  -11.8600    0.7464 H        1 ZINC000771225867    0.1000
35     H35    -3.5541  -14.2131    0.2441 H        1 ZINC000771225867    0.4000
36     H36    -4.9506  -14.0370   -0.6732 H        1 ZINC000771225867    0.4100
37     H37    -1.3259   -8.3471   -1.8323 H        1 ZINC000771225867    0.1400
@<TRIPOS>BOND
1     1     2     1
2     1     24    1
3     1     25    1
4     1     26    1
5     2     3     1
6     3     4     2
7     3     5     1
8     5     23    1
9     5     6     2
10    6     7     1
11    6     8     1
12    8     9     2
13    9     10    1
14    9     23    1
15    10    11    1
16    10    27    1
17    11    12    1
18    11    28    1
19    11    29    1
20    12    22    ar
21    12    13    ar
22    13    14    ar
23    13    30    1
24    14    15    ar
25    14    31    1
26    15    16    ar
27    15    32    1
28    16    17    1
29    16    22    ar
30    17    18    1
31    18    19    1
32    18    33    1
33    18    34    1
34    19    20    am
35    19    21    2
36    20    35    1
37    20    36    1
38    22    37    1
@<TRIPOS>SUBSTRUCTURE
1   ZINC000771225867 1     RESIDUE    1   A     ZIN   1
@<TRIPOS>MOLECULE
ZINC001139743874
58	61	1	0	0
SMALL
USER_CHARGES
@<TRIPOS>ATOM
1      C1     -0.0187    1.5258    0.0104 C.3      1 ZINC001139743874   -0.1800
2      C2      0.0021   -0.0041    0.0020 C.3      1 ZINC001139743874    0.1400
3      C3      0.7421   -0.5109    1.2415 C.3      1 ZINC001139743874   -0.1800
4      C4     -1.4333   -0.5336    0.0129 C.3      1 ZINC001139743874   -0.1400
5      O5      0.6817   -0.4723   -1.1926 O.3      1 ZINC001139743874   -0.3600
6      C6      1.9630   -0.0923   -1.3556 C.2      1 ZINC001139743874    0.6500
7      O7      2.4986    0.6115   -0.5223 O.2      1 ZINC001139743874   -0.5700
8      N8      2.6515   -0.4924   -2.4429 N.am     1 ZINC001139743874   -0.5900
9      C9      2.0356   -1.3150   -3.4353 C.3      1 ZINC001139743874    0.1000
10     C10     2.0813   -2.8462   -3.1667 C.3      1 ZINC001139743874   -0.1300
11     C11     3.4730   -3.2242   -2.5820 C.3      1 ZINC001139743874   -0.0900
12     C12     4.5753   -2.4498   -3.2267 C.3      1 ZINC001139743874   -0.0800
13     C13     5.7962   -3.2660   -3.6674 C.3      1 ZINC001139743874    0.0100
14     N14     5.1335   -3.3462   -4.9893 N.3      1 ZINC001139743874   -0.4700
15     C15     6.0993   -3.1355   -6.0759 C.3      1 ZINC001139743874    0.0600
16     C16     5.3614   -2.9790   -7.3805 C.ar     1 ZINC001139743874   -0.1200
17     C17     5.0758   -4.0995   -8.1582 C.ar     1 ZINC001139743874    0.1500
18     N18     4.4357   -4.0002   -9.2981 N.ar     1 ZINC001139743874   -0.4600
19     C19     4.0283   -2.8173   -9.7639 C.ar     1 ZINC001139743874    0.0800
20     C20     3.3400   -2.7139  -10.9894 C.ar     1 ZINC001139743874   -0.0400
21     C21     2.9507   -1.4747  -11.4088 C.ar     1 ZINC001139743874   -0.1600
22     C22     3.2365   -0.3538  -10.6310 C.ar     1 ZINC001139743874    0.1300
23     N23     3.8769   -0.4530   -9.4915 N.ar     1 ZINC001139743874   -0.4700
24     C24     4.2842   -1.6362   -9.0255 C.ar     1 ZINC001139743874    0.0800
25     C25     4.9677   -1.7401   -7.7978 C.ar     1 ZINC001139743874   -0.0400
26     C26     4.3732   -2.1070   -4.7073 C.3      1 ZINC001139743874    0.0000
27     C27     4.9286   -1.2385   -2.3582 C.3      1 ZINC001139743874   -0.1300
28     C28     4.0769   -0.0796   -2.6408 C.3      1 ZINC001139743874    0.1400
29     H29     1.0039    1.9031    0.0027 H        1 ZINC001139743874    0.0900
30     H30    -0.5459    1.8868   -0.8726 H        1 ZINC001139743874    0.0600
31     H31    -0.5289    1.8773    0.9072 H        1 ZINC001139743874    0.0700
32     H32     0.2319   -0.1594    2.1383 H        1 ZINC001139743874    0.0700
33     H33     0.7568   -1.6008    1.2356 H        1 ZINC001139743874    0.0600
34     H34     1.7647   -0.1336    1.2338 H        1 ZINC001139743874    0.0900
35     H35    -1.9605   -0.1726   -0.8702 H        1 ZINC001139743874    0.0700
36     H36    -1.4185   -1.6235    0.0069 H        1 ZINC001139743874    0.0700
37     H37    -1.9435   -0.1821    0.9097 H        1 ZINC001139743874    0.0800
38     H38     0.9914   -1.0157   -3.5261 H        1 ZINC001139743874    0.0700
39     H39     2.5247   -1.1215   -4.3900 H        1 ZINC001139743874    0.0900
40     H40     1.3019   -3.1139   -2.4532 H        1 ZINC001139743874    0.0700
41     H41     1.9207   -3.3844   -4.1009 H        1 ZINC001139743874    0.0800
42     H42     3.4753   -3.0206   -1.5112 H        1 ZINC001139743874    0.0600
43     H43     3.6473   -4.2885   -2.7400 H        1 ZINC001139743874    0.0700
44     H44     6.7260   -2.6973   -3.6752 H        1 ZINC001139743874    0.0700
45     H45     5.8880   -4.2276   -3.1623 H        1 ZINC001139743874    0.0900
46     H46     6.6798   -2.2347   -5.8765 H        1 ZINC001139743874    0.0600
47     H47     6.7692   -3.9931   -6.1380 H        1 ZINC001139743874    0.0900
48     H48     5.3897   -5.0737   -7.8135 H        1 ZINC001139743874    0.1700
49     H49     3.1265   -3.5918  -11.5811 H        1 ZINC001139743874    0.1500
50     H50     2.4214   -1.3625  -12.3435 H        1 ZINC001139743874    0.1500
51     H51     2.9229    0.6205  -10.9758 H        1 ZINC001139743874    0.1700
52     H52     5.1780   -0.8625   -7.2045 H        1 ZINC001139743874    0.1400
53     H53     3.3327   -2.1464   -5.0298 H        1 ZINC001139743874    0.1000
54     H54     4.8836   -1.1967   -5.0216 H        1 ZINC001139743874    0.0700
55     H55     4.8178   -1.5123   -1.3090 H        1 ZINC001139743874    0.0700
56     H56     5.9675   -0.9641   -2.5414 H        1 ZINC001139743874    0.0800
57     H57     4.2301    0.2467   -3.6695 H        1 ZINC001139743874    0.0800
58     H58     4.3231    0.7326   -1.9569 H        1 ZINC001139743874    0.1000
@<TRIPOS>BOND
1     1     2     1
2     1     29    1
3     1     30    1
4     1     31    1
5     2     3     1
6     2     4     1
7     2     5     1
8     3     32    1
9     3     33    1
10    3     34    1
11    4     35    1
12    4     36    1
13    4     37    1
14    5     6     1
15    6     7     2
16    6     8     am
17    8     28    1
18    8     9     1
19    9     10    1
20    9     38    1
21    9     39    1
22    10    11    1
23    10    40    1
24    10    41    1
25    11    12    1
26    11    42    1
27    11    43    1
28    12    26    1
29    12    13    1
30    12    27    1
31    13    14    1
32    13    44    1
33    13    45    1
34    14    15    1
35    14    26    1
36    15    16    1
37    15    46    1
38    15    47    1
39    16    25    ar
40    16    17    ar
41    17    18    ar
42    17    48    1
43    18    19    ar
44    19    24    ar
45    19    20    ar
46    20    21    ar
47    20    49    1
48    21    22    ar
49    21    50    1
50    22    23    ar
51    22    51    1
52    23    24    ar
53    24    25    ar
54    25    52    1
55    26    53    1
56    26    54    1
57    27    28    1
58    27    55    1
59    27    56    1
60    28    57    1
61    28    58    1
@<TRIPOS>SUBSTRUCTURE
1   ZINC001139743874 1     RESIDUE    1   A     ZIN   1
@<TRIPOS>MOLECULE
ZINC000543020509
41	43	1	0	0
SMALL
USER_CHARGES
@<TRIPOS>ATOM
1      C1     -0.0178    1.4608    0.0101 C.3      1 ZINC000543020509    0.0800
2      N2      0.0021   -0.0041    0.0020 N.pl3    1 ZINC000543020509   -0.6200
3      C3      0.0241   -0.7433    1.2666 C.3      1 ZINC000543020509    0.0900
4      C4      0.0000   -0.6935   -1.2072 C.ar     1 ZINC000543020509    0.2500
5      C5      0.0128   -2.0870   -1.2350 C.ar     1 ZINC000543020509   -0.2200
6      C6      0.0099   -2.7388   -2.4544 C.ar     1 ZINC000543020509    0.1400
7      N7     -0.0049   -2.0633   -3.5840 N.ar     1 ZINC000543020509   -0.5000
8      C8     -0.0175   -0.7348   -3.6059 C.ar     1 ZINC000543020509    0.1100
9      C9     -0.0343   -0.0225   -4.9046 C.2      1 ZINC000543020509    0.5900
10     O10    -0.0459    1.1925   -4.9312 O.2      1 ZINC000543020509   -0.5000
11     N11    -0.0368   -0.7217   -6.0568 N.am     1 ZINC000543020509   -0.6200
12     C12    -0.0527   -0.0487   -7.2838 C.2      1 ZINC000543020509    0.3200
13     N13    -0.0624   -0.6108   -8.4698 N.2      1 ZINC000543020509   -0.3100
14     N14    -0.0780    0.4041   -9.4353 N.pl3    1 ZINC000543020509   -0.3300
15     C15    -0.0923    0.2209  -10.8202 C.ar     1 ZINC000543020509    0.2200
16     C16    -0.1018    1.3187  -11.6679 C.ar     1 ZINC000543020509   -0.1300
17     C17    -0.1158    1.1363  -13.0371 C.ar     1 ZINC000543020509   -0.0500
18     C18    -0.1207   -0.1411  -13.5741 C.ar     1 ZINC000543020509   -0.0600
19     Cl19   -0.1384   -0.3543  -15.2969 Cl       1 ZINC000543020509   -0.0500
20     C20    -0.1110   -1.2446  -12.7453 C.ar     1 ZINC000543020509   -0.0400
21     C21    -0.0913   -1.0742  -11.3596 C.ar     1 ZINC000543020509   -0.0200
22     C22    -0.0812   -2.2148  -10.4939 C.1      1 ZINC000543020509    0.2500
23     N23    -0.0731   -3.1197   -9.8071 N.1      1 ZINC000543020509   -0.3800
24     C24    -0.0773    1.5981   -8.7868 C.2      1 ZINC000543020509    0.0700
25     C25    -0.0671    1.3456   -7.4587 C.2      1 ZINC000543020509   -0.2400
26     C26    -0.0208   -0.0072   -2.4213 C.ar     1 ZINC000543020509   -0.1800
27     H27     1.0048    1.8381    0.0023 H        1 ZINC000543020509    0.0600
28     H28    -0.5450    1.8219   -0.8730 H        1 ZINC000543020509    0.0700
29     H29    -0.5280    1.8123    0.9069 H        1 ZINC000543020509    0.0700
30     H30     0.0224   -0.0395    2.0990 H        1 ZINC000543020509    0.0800
31     H31    -0.8567   -1.3823    1.3294 H        1 ZINC000543020509    0.0600
32     H32     0.9230   -1.3581    1.3125 H        1 ZINC000543020509    0.0600
33     H33     0.0253   -2.6514   -0.3143 H        1 ZINC000543020509    0.1400
34     H34     0.0201   -3.8184   -2.4804 H        1 ZINC000543020509    0.1700
35     H35    -0.0275   -1.6914   -6.0356 H        1 ZINC000543020509    0.4300
36     H36    -0.0984    2.3174  -11.2569 H        1 ZINC000543020509    0.1500
37     H37    -0.1235    1.9944  -13.6928 H        1 ZINC000543020509    0.1500
38     H38    -0.1148   -2.2384  -13.1680 H        1 ZINC000543020509    0.1500
39     H39    -0.0873    2.5740   -9.2494 H        1 ZINC000543020509    0.1900
40     H40    -0.0639    2.0848   -6.6714 H        1 ZINC000543020509    0.1800
41     H41    -0.0315    1.0726   -2.4409 H        1 ZINC000543020509    0.1500
@<TRIPOS>BOND
1     1     2     1
2     1     27    1
3     1     28    1
4     1     29    1
5     2     3     1
6     2     4     1
7     3     30    1
8     3     31    1
9     3     32    1
10    4     26    ar
11    4     5     ar
12    5     6     ar
13    5     33    1
14    6     7     ar
15    6     34    1
16    7     8     ar
17    8     9     1
18    8     26    ar
19    9     10    2
20    9     11    am
21    11    12    1
22    11    35    1
23    12    25    1
24    12    13    2
25    13    14    1
26    14    15    1
27    14    24    1
28    15    21    ar
29    15    16    ar
30    16    17    ar
31    16    36    1
32    17    18    ar
33    17    37    1
34    18    19    1
35    18    20    ar
36    20    21    ar
37    20    38    1
38    21    22    1
39    22    23    3
40    24    25    2
41    24    39    1
42    25    40    1
43    26    41    1
@<TRIPOS>SUBSTRUCTURE
1   ZINC000543020509 1     RESIDUE    1   A     ZIN   1
@<TRIPOS>MOLECULE
ZINC000537799672
57	59	1	0	0
SMALL
USER_CHARGES
@<TRIPOS>ATOM
1      C1     -1.1797    0.7743    0.4593 C.3      1 ZINC000537799672    0.0300
2      O2      0.0126    0.0990    0.0537 O.3      1 ZINC000537799672   -0.3800
3      C3      0.7425   -0.4899    1.1318 C.3      1 ZINC000537799672    0.1200
4      H4      0.6127    0.1129    2.0306 H        1 ZINC000537799672    0.0900
5      C5      0.2291   -1.8842    1.3836 C.ar     1 ZINC000537799672   -0.1300
6      C6     -0.0947   -2.7039    0.3185 C.ar     1 ZINC000537799672   -0.0600
7      C7     -0.5656   -3.9827    0.5482 C.ar     1 ZINC000537799672   -0.1500
8      C8     -0.7128   -4.4430    1.8457 C.ar     1 ZINC000537799672    0.1000
9      F9     -1.1727   -5.6931    2.0714 F        1 ZINC000537799672   -0.1400
10     C10    -0.3878   -3.6213    2.9117 C.ar     1 ZINC000537799672   -0.1500
11     C11     0.0875   -2.3446    2.6795 C.ar     1 ZINC000537799672   -0.0800
12     C12     2.2276   -0.5512    0.7690 C.3      1 ZINC000537799672    0.1600
13     H13     2.7834   -1.0068    1.5885 H        1 ZINC000537799672    0.1000
14     C14     2.7513    0.8652    0.5229 C.3      1 ZINC000537799672   -0.1600
15     N15     2.4012   -1.3536   -0.4444 N.am     1 ZINC000537799672   -0.7100
16     C16     3.5764   -1.9686   -0.6831 C.2      1 ZINC000537799672    0.5600
17     O17     4.4923   -1.8575    0.1082 O.2      1 ZINC000537799672   -0.5400
18     C18     3.7516   -2.7785   -1.9076 C.ar     1 ZINC000537799672   -0.1400
19     C19     2.7039   -2.9033   -2.8211 C.ar     1 ZINC000537799672   -0.0800
20     C20     2.8741   -3.6602   -3.9621 C.ar     1 ZINC000537799672   -0.1300
21     C21     4.0798   -4.2949   -4.2014 C.ar     1 ZINC000537799672   -0.0900
22     C22     5.1225   -4.1755   -3.2995 C.ar     1 ZINC000537799672   -0.1100
23     C23     4.9675   -3.4168   -2.1579 C.ar     1 ZINC000537799672   -0.0300
24     C24     6.1043   -3.2875   -1.1770 C.3      1 ZINC000537799672    0.1100
25     O25     7.2269   -4.0361   -1.6476 O.3      1 ZINC000537799672   -0.3800
26     C26     8.3654   -3.9800   -0.7857 C.3      1 ZINC000537799672    0.0900
27     C27     8.3005   -5.1296    0.2245 C.3      1 ZINC000537799672   -0.1800
28     C28     9.5619   -5.1085    1.0916 C.3      1 ZINC000537799672    0.0600
29     O29    10.7157   -5.2084    0.2544 O.3      1 ZINC000537799672   -0.3800
30     C30    10.8542   -4.1349   -0.6787 C.3      1 ZINC000537799672    0.0600
31     C31     9.6446   -4.1169   -1.6170 C.3      1 ZINC000537799672   -0.1500
32     H32    -0.9341    1.5260    1.2094 H        1 ZINC000537799672    0.0500
33     H33    -1.6350    1.2582   -0.4047 H        1 ZINC000537799672    0.0900
34     H34    -1.8793    0.0536    0.8827 H        1 ZINC000537799672    0.0400
35     H35     0.0202   -2.3446   -0.6935 H        1 ZINC000537799672    0.1300
36     H36    -0.8191   -4.6226   -0.2841 H        1 ZINC000537799672    0.1400
37     H37    -0.5025   -3.9793    3.9242 H        1 ZINC000537799672    0.1400
38     H38     0.3414   -1.7036    3.5108 H        1 ZINC000537799672    0.1300
39     H39     2.5371    1.4878    1.3916 H        1 ZINC000537799672    0.0700
40     H40     3.8281    0.8308    0.3572 H        1 ZINC000537799672    0.0600
41     H41     2.2618    1.2861   -0.3553 H        1 ZINC000537799672    0.0700
42     H42     1.6703   -1.4423   -1.0759 H        1 ZINC000537799672    0.4000
43     H43     1.7619   -2.4089   -2.6351 H        1 ZINC000537799672    0.1300
44     H44     2.0641   -3.7576   -4.6699 H        1 ZINC000537799672    0.1300
45     H45     4.2077   -4.8864   -5.0959 H        1 ZINC000537799672    0.1300
46     H46     6.0611   -4.6738   -3.4919 H        1 ZINC000537799672    0.1400
47     H47     6.3824   -2.2381   -1.0794 H        1 ZINC000537799672    0.0800
48     H48     5.7920   -3.6724   -0.2062 H        1 ZINC000537799672    0.0800
49     H49     8.3750   -3.0274   -0.2559 H        1 ZINC000537799672    0.0600
50     H50     7.4213   -5.0092    0.8574 H        1 ZINC000537799672    0.0800
51     H51     8.2401   -6.0790   -0.3076 H        1 ZINC000537799672    0.0800
52     H52     9.6007   -4.1757    1.6542 H        1 ZINC000537799672    0.0500
53     H53     9.5412   -5.9501    1.7840 H        1 ZINC000537799672    0.1000
54     H54    10.9098   -3.1893   -0.1393 H        1 ZINC000537799672    0.0500
55     H55    11.7644   -4.2751   -1.2617 H        1 ZINC000537799672    0.1000
56     H56     9.6114   -5.0459   -2.1862 H        1 ZINC000537799672    0.0800
57     H57     9.7267   -3.2722   -2.3010 H        1 ZINC000537799672    0.0800
@<TRIPOS>BOND
1     1     2     1
2     1     32    1
3     1     33    1
4     1     34    1
5     2     3     1
6     3     4     1
7     3     5     1
8     3     12    1
9     5     11    ar
10    5     6     ar
11    6     7     ar
12    6     35    1
13    7     8     ar
14    7     36    1
15    8     9     1
16    8     10    ar
17    10    11    ar
18    10    37    1
19    11    38    1
20    12    13    1
21    12    14    1
22    12    15    1
23    14    39    1
24    14    40    1
25    14    41    1
26    15    16    am
27    15    42    1
28    16    17    2
29    16    18    1
30    18    23    ar
31    18    19    ar
32    19    20    ar
33    19    43    1
34    20    21    ar
35    20    44    1
36    21    22    ar
37    21    45    1
38    22    23    ar
39    22    46    1
40    23    24    1
41    24    25    1
42    24    47    1
43    24    48    1
44    25    26    1
45    26    31    1
46    26    27    1
47    26    49    1
48    27    28    1
49    27    50    1
50    27    51    1
51    28    29    1
52    28    52    1
53    28    53    1
54    29    30    1
55    30    31    1
56    30    54    1
57    30    55    1
58    31    56    1
59    31    57    1
@<TRIPOS>SUBSTRUCTURE
1   ZINC000537799672 1     RESIDUE    1   A     ZIN   1
@<TRIPOS>MOLECULE
ZINC000538774026
61	62	1	0	0
SMALL
USER_CHARGES
@<TRIPOS>ATOM
1      C1     -0.0187    1.5258    0.0104 C.3      1 ZINC000538774026   -0.1500
2      C2      0.0021   -0.0041    0.0020 C.3      1 ZINC000538774026   -0.1100
3      C3      0.7421   -0.5109    1.2415 C.3      1 ZINC000538774026   -0.1400
4      C4     -1.4333   -0.5336    0.0129 C.3      1 ZINC000538774026    0.1400
5      N5     -2.1054   -0.1483   -1.2305 N.pl3    1 ZINC000538774026   -0.3400
6      N6     -2.8291    1.0316   -1.4451 N.2      1 ZINC000538774026   -0.2500
7      C7     -3.2790    1.0216   -2.6737 C.2      1 ZINC000538774026    0.0500
8      C8     -2.8580   -0.1666   -3.2881 C.2      1 ZINC000538774026    0.0800
9      N9     -3.1340   -0.5584   -4.6125 N.am     1 ZINC000538774026   -0.6600
10     C10    -3.8668    0.2409   -5.4129 C.2      1 ZINC000538774026    0.7100
11     O11    -4.2895    1.3004   -4.9916 O.2      1 ZINC000538774026   -0.5700
12     N12    -4.1309   -0.1340   -6.6802 N.am     1 ZINC000538774026   -0.7300
13     C13    -4.9274    0.7349   -7.5502 C.3      1 ZINC000538774026    0.1600
14     C14    -4.0161    1.7760   -8.2035 C.3      1 ZINC000538774026   -0.1300
15     C15    -2.9448    1.0665   -9.0341 C.3      1 ZINC000538774026   -0.1000
16     C16    -3.6165    0.2235  -10.1199 C.3      1 ZINC000538774026   -0.0800
17     C17    -2.5612   -0.4753  -10.9380 C.2      1 ZINC000538774026    0.4700
18     O18    -1.3919   -0.3154  -10.6790 O.2      1 ZINC000538774026   -0.5000
19     O19    -2.9203   -1.2753  -11.9542 O.3      1 ZINC000538774026   -0.3500
20     C20    -1.8507   -1.9157  -12.6987 C.3      1 ZINC000538774026    0.1200
21     C21    -1.0275   -2.7945  -11.7548 C.3      1 ZINC000538774026   -0.1800
22     C22    -2.4496   -2.7813  -13.8091 C.3      1 ZINC000538774026   -0.1400
23     C23    -0.9481   -0.8460  -13.3167 C.3      1 ZINC000538774026   -0.1800
24     C24    -4.5277   -0.8175   -9.4666 C.3      1 ZINC000538774026   -0.1100
25     C25    -5.5991   -0.1081   -8.6361 C.3      1 ZINC000538774026   -0.1300
26     C26    -2.1322   -0.8693   -2.3816 C.2      1 ZINC000538774026   -0.0500
27     C27    -1.4820   -2.2098   -2.6080 C.3      1 ZINC000538774026    0.3500
28     F28    -1.1281   -2.3348   -3.9557 F        1 ZINC000538774026   -0.1900
29     F29    -0.3351   -2.3119   -1.8133 F        1 ZINC000538774026   -0.1900
30     H30     1.0039    1.9031    0.0027 H        1 ZINC000538774026    0.0600
31     H31    -0.5459    1.8868   -0.8726 H        1 ZINC000538774026    0.0600
32     H32    -0.5289    1.8773    0.9072 H        1 ZINC000538774026    0.0600
33     H33     0.5123   -0.3556   -0.8948 H        1 ZINC000538774026    0.0800
34     H34     0.2319   -0.1594    2.1383 H        1 ZINC000538774026    0.0600
35     H35     0.7568   -1.6008    1.2356 H        1 ZINC000538774026    0.0600
36     H36     1.7647   -0.1336    1.2338 H        1 ZINC000538774026    0.0600
37     H37    -1.4190   -1.6203    0.0965 H        1 ZINC000538774026    0.1000
38     H38    -1.9701   -0.1109    0.8621 H        1 ZINC000538774026    0.1000
39     H39    -3.8734    1.7960   -3.1356 H        1 ZINC000538774026    0.2100
40     H40    -2.7968   -1.4035   -4.9486 H        1 ZINC000538774026    0.4100
41     H41    -3.7937   -0.9791   -7.0163 H        1 ZINC000538774026    0.4000
42     H42    -5.6906    1.2403   -6.9586 H        1 ZINC000538774026    0.1000
43     H43    -4.6087    2.4224   -8.8508 H        1 ZINC000538774026    0.0800
44     H44    -3.5376    2.3765   -7.4300 H        1 ZINC000538774026    0.0800
45     H45    -2.2956    1.8082   -9.4995 H        1 ZINC000538774026    0.0700
46     H46    -2.3522    0.4200   -8.3868 H        1 ZINC000538774026    0.0700
47     H47    -4.2090    0.8700  -10.7672 H        1 ZINC000538774026    0.1100
48     H48    -1.6706   -3.5565  -11.3145 H        1 ZINC000538774026    0.0600
49     H49    -0.2246   -3.2752  -12.3137 H        1 ZINC000538774026    0.0700
50     H50    -0.6009   -2.1778  -10.9638 H        1 ZINC000538774026    0.0800
51     H51    -3.0361   -2.1553  -14.4815 H        1 ZINC000538774026    0.0700
52     H52    -1.6467   -3.2621  -14.3679 H        1 ZINC000538774026    0.0800
53     H53    -3.0927   -3.5434  -13.3688 H        1 ZINC000538774026    0.0700
54     H54    -0.5215   -0.2293  -12.5257 H        1 ZINC000538774026    0.0800
55     H55    -0.1452   -1.3267  -13.8756 H        1 ZINC000538774026    0.0700
56     H56    -1.5346   -0.2199  -13.9892 H        1 ZINC000538774026    0.0600
57     H57    -5.0062   -1.4181  -10.2402 H        1 ZINC000538774026    0.0800
58     H58    -3.9351   -1.4640   -8.8193 H        1 ZINC000538774026    0.0600
59     H59    -6.2482   -0.8498   -8.1707 H        1 ZINC000538774026    0.0800
60     H60    -6.1916    0.5384   -9.2834 H        1 ZINC000538774026    0.0900
61     H61    -2.1809   -3.0024   -2.3408 H        1 ZINC000538774026    0.1300
@<TRIPOS>BOND
1     1     2     1
2     1     30    1
3     1     31    1
4     1     32    1
5     2     3     1
6     2     4     1
7     2     33    1
8     3     34    1
9     3     35    1
10    3     36    1
11    4     5     1
12    4     37    1
13    4     38    1
14    5     26    1
15    5     6     1
16    6     7     2
17    7     8     1
18    7     39    1
19    8     9     1
20    8     26    2
21    9     10    am
22    9     40    1
23    10    11    2
24    10    12    am
25    12    13    1
26    12    41    1
27    13    25    1
28    13    14    1
29    13    42    1
30    14    15    1
31    14    43    1
32    14    44    1
33    15    16    1
34    15    45    1
35    15    46    1
36    16    17    1
37    16    24    1
38    16    47    1
39    17    18    2
40    17    19    1
41    19    20    1
42    20    21    1
43    20    22    1
44    20    23    1
45    21    48    1
46    21    49    1
47    21    50    1
48    22    51    1
49    22    52    1
50    22    53    1
51    23    54    1
52    23    55    1
53    23    56    1
54    24    25    1
55    24    57    1
56    24    58    1
57    25    59    1
58    25    60    1
59    26    27    1
60    27    28    1
61    27    29    1
62    27    61    1
@<TRIPOS>SUBSTRUCTURE
1   ZINC000538774026 1     RESIDUE    1   A     ZIN   1
@<TRIPOS>MOLECULE
ZINC000820901229
33	35	1	0	0
SMALL
USER_CHARGES
@<TRIPOS>ATOM
1      O1      0.0021   -0.0041    0.0020 O.2      1 ZINC000820901229   -0.5300
2      C2     -0.0144    1.2121    0.0087 C.2      1 ZINC000820901229    0.6000
3      N3      1.1435    1.9018    0.0014 N.am     1 ZINC000820901229   -0.7100
4      C4      2.4220    1.1867   -0.0147 C.3      1 ZINC000820901229    0.1600
5      H5      2.3299    0.2761   -0.6067 H        1 ZINC000820901229    0.1000
6      C6      2.8434    0.8365    1.4215 C.3      1 ZINC000820901229   -0.1300
7      C7      4.2035    0.1458    1.4521 C.3      1 ZINC000820901229   -0.1100
8      C8      5.2758    0.9863    0.7392 C.3      1 ZINC000820901229   -0.1100
9      C9      4.7980    1.2188   -0.6793 C.3      1 ZINC000820901229    0.0800
10     H10     4.5747    0.2627   -1.1528 H        1 ZINC000820901229    0.0700
11     O11     5.6277    1.9955   -1.5357 O.3      1 ZINC000820901229   -0.3700
12     C12     4.7658    2.4138   -2.6247 C.3      1 ZINC000820901229    0.0500
13     C13     3.3185    2.4564   -2.0696 C.3      1 ZINC000820901229   -0.1500
14     C14     3.5044    2.0764   -0.6002 C.3      1 ZINC000820901229   -0.1400
15     H15     3.6556    2.9642    0.0138 H        1 ZINC000820901229    0.0900
16     C16    -1.2995    1.9310    0.0187 C.2      1 ZINC000820901229    0.0100
17     C17    -2.4969    1.3039    0.0263 C.2      1 ZINC000820901229   -0.2200
18     S18    -3.7367    2.4806    0.0366 S.3      1 ZINC000820901229    0.3100
19     C19    -2.5860    3.7424    0.0302 C.2      1 ZINC000820901229   -0.0100
20     Br20   -3.0086    5.5856    0.0362 Br       1 ZINC000820901229    0.0700
21     N21    -1.3907    3.2641    0.0269 N.2      1 ZINC000820901229   -0.4100
22     H22     1.1303    2.8717    0.0067 H        1 ZINC000820901229    0.4100
23     H23     2.8955    1.7520    2.0107 H        1 ZINC000820901229    0.0700
24     H24     2.0974    0.1739    1.8601 H        1 ZINC000820901229    0.0700
25     H25     4.5021   -0.0078    2.4891 H        1 ZINC000820901229    0.0800
26     H26     4.1229   -0.8225    0.9583 H        1 ZINC000820901229    0.0700
27     H27     5.3985    1.9413    1.2502 H        1 ZINC000820901229    0.0700
28     H28     6.2227    0.4466    0.7276 H        1 ZINC000820901229    0.0800
29     H29     5.0598    3.4045   -2.9713 H        1 ZINC000820901229    0.0900
30     H30     4.8283    1.6974   -3.4438 H        1 ZINC000820901229    0.0600
31     H31     2.9023    3.4602   -2.1556 H        1 ZINC000820901229    0.0800
32     H32     2.6873    1.7313   -2.5834 H        1 ZINC000820901229    0.0800
33     H33    -2.6459    0.2342    0.0253 H        1 ZINC000820901229    0.2000
@<TRIPOS>BOND
1     1     2     2
2     2     3     am
3     2     16    1
4     3     4     1
5     3     22    1
6     4     5     1
7     4     14    1
8     4     6     1
9     6     7     1
10    6     23    1
11    6     24    1
12    7     8     1
13    7     25    1
14    7     26    1
15    8     9     1
16    8     27    1
17    8     28    1
18    9     10    1
19    9     14    1
20    9     11    1
21    11    12    1
22    12    13    1
23    12    29    1
24    12    30    1
25    13    14    1
26    13    31    1
27    13    32    1
28    14    15    1
29    16    21    1
30    16    17    2
31    17    18    1
32    17    33    1
33    18    19    1
34    19    20    1
35    19    21    2
@<TRIPOS>SUBSTRUCTURE
1   ZINC000820901229 1     RESIDUE    1   A     ZIN   1
@<TRIPOS>MOLECULE
ZINC000484900616
58	60	1	0	0
SMALL
USER_CHARGES
@<TRIPOS>ATOM
1      C1      0.8480   -8.6249  -11.9100 C.3      1 ZINC000484900616   -0.1500
2      C2      2.2363   -8.0042  -12.0784 C.3      1 ZINC000484900616    0.0600
3      O3      2.4656   -7.0371  -11.0199 O.3      1 ZINC000484900616   -0.3400
4      C4      3.6511   -6.3955  -11.0235 C.2      1 ZINC000484900616    0.5500
5      O5      4.4707   -6.6379  -11.8878 O.2      1 ZINC000484900616   -0.5000
6      C6      3.9530   -5.4019   -9.9814 C.2      1 ZINC000484900616    0.0200
7      C7      5.1185   -4.7172   -9.9274 C.2      1 ZINC000484900616   -0.2400
8      S8      5.0791   -3.6670   -8.5792 S.3      1 ZINC000484900616    0.2900
9      C9      3.5109   -4.2017   -8.1656 C.2      1 ZINC000484900616    0.0300
10     C10     2.7169   -3.7013   -6.9864 C.3      1 ZINC000484900616    0.1500
11     H11     1.6724   -3.9987   -7.0795 H        1 ZINC000484900616    0.0900
12     C12     3.3159   -4.2424   -5.6643 C.3      1 ZINC000484900616   -0.1200
13     C13     2.8268   -3.1829   -4.6420 C.3      1 ZINC000484900616   -0.1400
14     C14     2.8829   -1.8689   -5.4493 C.3      1 ZINC000484900616    0.0500
15     N15     2.8258   -2.2308   -6.8792 N.3      1 ZINC000484900616   -0.5100
16     C16     1.6987   -1.5654   -7.5461 C.3      1 ZINC000484900616    0.0300
17     C17     1.9278   -0.0759   -7.5537 C.2      1 ZINC000484900616    0.5200
18     O18     2.9794    0.3779   -7.1548 O.2      1 ZINC000484900616   -0.5100
19     N19     0.9641    0.7518   -8.0037 N.am     1 ZINC000484900616   -0.7300
20     C20     1.1868    2.1998   -8.0110 C.3      1 ZINC000484900616    0.1900
21     H21     1.7885    2.4793   -7.1462 H        1 ZINC000484900616    0.1000
22     C22     1.9216    2.5962   -9.2932 C.3      1 ZINC000484900616   -0.1600
23     C23    -0.1397    2.9124   -7.9515 C.ar     1 ZINC000484900616   -0.1000
24     C24    -1.2168    2.4292   -8.6708 C.ar     1 ZINC000484900616   -0.1100
25     C25    -2.4336    3.0829   -8.6162 C.ar     1 ZINC000484900616   -0.1100
26     C26    -2.5735    4.2195   -7.8420 C.ar     1 ZINC000484900616   -0.0800
27     C27    -3.8999    4.9324   -7.7828 C.3      1 ZINC000484900616   -0.0900
28     C28    -4.7363    4.3591   -6.6371 C.3      1 ZINC000484900616   -0.1500
29     C29    -1.4968    4.7019   -7.1216 C.ar     1 ZINC000484900616   -0.1100
30     C30    -0.2810    4.0460   -7.1732 C.ar     1 ZINC000484900616   -0.1000
31     N31     3.0995   -5.0870   -9.0030 N.2      1 ZINC000484900616   -0.4300
32     H32     0.7879   -9.1238  -10.9427 H        1 ZINC000484900616    0.0700
33     H33     0.0912   -7.8422  -11.9628 H        1 ZINC000484900616    0.0700
34     H34     0.6758   -9.3510  -12.7046 H        1 ZINC000484900616    0.0800
35     H35     2.9930   -8.7869  -12.0256 H        1 ZINC000484900616    0.0700
36     H36     2.2964   -7.5054  -13.0457 H        1 ZINC000484900616    0.0700
37     H37     5.9393   -4.8176  -10.6221 H        1 ZINC000484900616    0.1900
38     H38     2.9140   -5.2277   -5.4279 H        1 ZINC000484900616    0.0900
39     H39     4.4046   -4.2672   -5.7102 H        1 ZINC000484900616    0.0800
40     H40     1.8063   -3.3965   -4.3240 H        1 ZINC000484900616    0.0700
41     H41     3.4973   -3.1369   -3.7839 H        1 ZINC000484900616    0.0800
42     H42     2.0305   -1.2397   -5.1934 H        1 ZINC000484900616    0.0600
43     H43     3.8129   -1.3420   -5.2358 H        1 ZINC000484900616    0.0900
44     H44     1.6190   -1.9260   -8.5716 H        1 ZINC000484900616    0.1100
45     H45     0.7763   -1.7884   -7.0098 H        1 ZINC000484900616    0.0700
46     H46     0.1230    0.3889   -8.3226 H        1 ZINC000484900616    0.4000
47     H47     2.0873    3.6735   -9.2987 H        1 ZINC000484900616    0.0700
48     H48     2.8811    2.0808   -9.3362 H        1 ZINC000484900616    0.0700
49     H49     1.3199    2.3167  -10.1580 H        1 ZINC000484900616    0.0600
50     H50    -1.1075    1.5412   -9.2757 H        1 ZINC000484900616    0.1200
51     H51    -3.2749    2.7058   -9.1788 H        1 ZINC000484900616    0.1200
52     H52    -3.7333    5.9963   -7.6141 H        1 ZINC000484900616    0.0700
53     H53    -4.4299    4.7925   -8.7250 H        1 ZINC000484900616    0.0700
54     H54    -4.9029    3.2952   -6.8059 H        1 ZINC000484900616    0.0600
55     H55    -4.2064    4.4990   -5.6950 H        1 ZINC000484900616    0.0600
56     H56    -5.6957    4.8747   -6.5944 H        1 ZINC000484900616    0.0600
57     H57    -1.6062    5.5897   -6.5164 H        1 ZINC000484900616    0.1200
58     H58     0.5602    4.4229   -6.6103 H        1 ZINC000484900616    0.1200
@<TRIPOS>BOND
1     1     2     1
2     1     32    1
3     1     33    1
4     1     34    1
5     2     3     1
6     2     35    1
7     2     36    1
8     3     4     1
9     4     5     2
10    4     6     1
11    6     31    1
12    6     7     2
13    7     8     1
14    7     37    1
15    8     9     1
16    9     10    1
17    9     31    2
18    10    11    1
19    10    15    1
20    10    12    1
21    12    13    1
22    12    38    1
23    12    39    1
24    13    14    1
25    13    40    1
26    13    41    1
27    14    15    1
28    14    42    1
29    14    43    1
30    15    16    1
31    16    17    1
32    16    44    1
33    16    45    1
34    17    18    2
35    17    19    am
36    19    20    1
37    19    46    1
38    20    21    1
39    20    22    1
40    20    23    1
41    22    47    1
42    22    48    1
43    22    49    1
44    23    30    ar
45    23    24    ar
46    24    25    ar
47    24    50    1
48    25    26    ar
49    25    51    1
50    26    27    1
51    26    29    ar
52    27    28    1
53    27    52    1
54    27    53    1
55    28    54    1
56    28    55    1
57    28    56    1
58    29    30    ar
59    29    57    1
60    30    58    1
@<TRIPOS>SUBSTRUCTURE
1   ZINC000484900616 1     RESIDUE    1   A     ZIN   1
@<TRIPOS>MOLECULE
ZINC000430767928
51	55	1	0	0
SMALL
USER_CHARGES
@<TRIPOS>ATOM
1      O1      0.0021   -0.0041    0.0020 O.2      1 ZINC000430767928   -0.4600
2      C2     -0.0144    1.2081    0.0087 C.2      1 ZINC000430767928    0.5300
3      C3     -1.2265    2.1078    0.0317 C.3      1 ZINC000430767928    0.0400
4      H4     -1.7414    2.0989    0.9924 H        1 ZINC000430767928    0.1400
5      C5     -2.1689    1.8193   -1.1550 C.3      1 ZINC000430767928   -0.1100
6      C6     -2.7828    3.2143   -1.4380 C.3      1 ZINC000430767928   -0.1000
7      H7     -3.7522    3.3083   -0.9486 H        1 ZINC000430767928    0.1000
8      C8     -2.9248    3.4374   -2.9450 C.3      1 ZINC000430767928   -0.0800
9      C9     -3.8378    2.3614   -3.5362 C.3      1 ZINC000430767928   -0.1100
10     C10    -3.9797    2.5846   -5.0432 C.3      1 ZINC000430767928   -0.1200
11     C11    -4.5867    3.9655   -5.2993 C.3      1 ZINC000430767928   -0.1200
12     C12    -3.6737    5.0415   -4.7081 C.3      1 ZINC000430767928   -0.1200
13     C13    -3.5318    4.8183   -3.2011 C.3      1 ZINC000430767928   -0.1200
14     C14    -1.7773    4.2197   -0.8361 C.3      1 ZINC000430767928    0.1600
15     N15    -0.6463    3.4367   -0.3107 N.am     1 ZINC000430767928   -0.6400
16     C16     0.6603    3.3359   -0.0467 C.2      1 ZINC000430767928    0.7400
17     O17     1.4016    4.2864    0.1090 O.2      1 ZINC000430767928   -0.5100
18     N18     1.0486    2.0428    0.0030 N.am     1 ZINC000430767928   -0.5800
19     C19     2.4446    1.5999    0.0383 C.3      1 ZINC000430767928    0.2600
20     H20     2.4795    0.5111    0.0764 H        1 ZINC000430767928    0.1200
21     C21     3.1561    2.0823   -1.1994 C.2      1 ZINC000430767928   -0.2100
22     C22     4.0410    1.3743   -1.9029 C.2      1 ZINC000430767928   -0.1200
23     C23     4.5654    2.0264   -3.0056 C.2      1 ZINC000430767928   -0.1400
24     C24     4.1064    3.2641   -3.1974 C.2      1 ZINC000430767928   -0.2300
25     S25     2.9412    3.6624   -1.9416 S.3      1 ZINC000430767928    0.1700
26     C26     3.1311    2.1759    1.2784 C.3      1 ZINC000430767928   -0.1700
27     C27     3.5290    1.1965    2.3846 C.3      1 ZINC000430767928   -0.1700
28     C28     4.6045    1.8260    1.4968 C.3      1 ZINC000430767928   -0.1600
29     H29    -1.6073    1.4608   -2.0176 H        1 ZINC000430767928    0.0800
30     H30    -2.9425    1.1058   -0.8710 H        1 ZINC000430767928    0.1000
31     H31    -1.9430    3.3793   -3.4150 H        1 ZINC000430767928    0.0700
32     H32    -3.4053    1.3776   -3.3537 H        1 ZINC000430767928    0.0600
33     H33    -4.8195    2.4196   -3.0662 H        1 ZINC000430767928    0.0700
34     H34    -2.9979    2.5264   -5.5131 H        1 ZINC000430767928    0.0600
35     H35    -4.6301    1.8180   -5.4643 H        1 ZINC000430767928    0.0600
36     H36    -4.6878    4.1245   -6.3728 H        1 ZINC000430767928    0.0600
37     H37    -5.5684    4.0237   -4.8293 H        1 ZINC000430767928    0.0600
38     H38    -2.6919    4.9834   -5.1780 H        1 ZINC000430767928    0.0600
39     H39    -4.1061    6.0253   -4.8905 H        1 ZINC000430767928    0.0600
40     H40    -4.5135    4.8765   -2.7311 H        1 ZINC000430767928    0.0700
41     H41    -2.8813    5.5849   -2.7800 H        1 ZINC000430767928    0.0600
42     H42    -1.4343    4.9108   -1.6061 H        1 ZINC000430767928    0.0900
43     H43    -2.2442    4.7712   -0.0201 H        1 ZINC000430767928    0.0800
44     H44     4.3268    0.3685   -1.6326 H        1 ZINC000430767928    0.1400
45     H45     5.2914    1.5680   -3.6606 H        1 ZINC000430767928    0.1400
46     H46     4.4024    3.9200   -4.0028 H        1 ZINC000430767928    0.1600
47     H47     2.7996    3.1693    1.5806 H        1 ZINC000430767928    0.1200
48     H48     3.4592    1.5455    3.4148 H        1 ZINC000430767928    0.1000
49     H49     3.3017    0.1420    2.2288 H        1 ZINC000430767928    0.1000
50     H50     5.0847    1.1855    0.7570 H        1 ZINC000430767928    0.1000
51     H51     5.2422    2.5891    1.9431 H        1 ZINC000430767928    0.1000
@<TRIPOS>BOND
1     1     2     2
2     2     18    am
3     2     3     1
4     3     4     1
5     3     15    1
6     3     5     1
7     5     6     1
8     5     29    1
9     5     30    1
10    6     7     1
11    6     8     1
12    6     14    1
13    8     13    1
14    8     9     1
15    8     31    1
16    9     10    1
17    9     32    1
18    9     33    1
19    10    11    1
20    10    34    1
21    10    35    1
22    11    12    1
23    11    36    1
24    11    37    1
25    12    13    1
26    12    38    1
27    12    39    1
28    13    40    1
29    13    41    1
30    14    15    1
31    14    42    1
32    14    43    1
33    15    16    am
34    16    17    2
35    16    18    am
36    18    19    1
37    19    20    1
38    19    21    1
39    19    26    1
40    21    25    1
41    21    22    2
42    22    23    1
43    22    44    1
44    23    24    2
45    23    45    1
46    24    25    1
47    24    46    1
48    26    28    1
49    26    27    1
50    26    47    1
51    27    28    1
52    27    48    1
53    27    49    1
54    28    50    1
55    28    51    1
@<TRIPOS>SUBSTRUCTURE
1   ZINC000430767928 1     RESIDUE    1   A     ZIN   1
@<TRIPOS>MOLECULE
ZINC000432253027
40	42	1	0	0
SMALL
USER_CHARGES
@<TRIPOS>ATOM
1      C1     -0.0173    1.4248    0.0099 C.3      1 ZINC000432253027    0.0300
2      O2      0.0021   -0.0041    0.0020 O.3      1 ZINC000432253027   -0.3100
3      C3     -1.1995   -0.6371    0.0101 C.ar     1 ZINC000432253027    0.1500
4      C4     -2.3730    0.0988    0.0195 C.ar     1 ZINC000432253027   -0.2100
5      C5     -3.5955   -0.5465    0.0282 C.ar     1 ZINC000432253027   -0.0600
6      C6     -3.6564   -1.9290    0.0272 C.ar     1 ZINC000432253027   -0.1600
7      C7     -2.4965   -2.6762    0.0178 C.ar     1 ZINC000432253027   -0.0300
8      C8     -1.2571   -2.0364    0.0031 C.ar     1 ZINC000432253027   -0.0600
9      C9     -0.0111   -2.8309   -0.0069 C.2      1 ZINC000432253027    0.1200
10     N10     0.0559   -4.1317   -0.0085 N.2      1 ZINC000432253027   -0.4600
11     C11     1.2554   -4.6674   -0.0187 C.2      1 ZINC000432253027    0.0800
12     C12     1.4653   -6.1597   -0.0222 C.3      1 ZINC000432253027   -0.0200
13     S13     1.5352   -6.7566   -1.7337 S.3      1 ZINC000432253027   -0.1700
14     C14     1.7880   -8.5417   -1.5334 C.3      1 ZINC000432253027   -0.0300
15     C15     1.8684   -9.1930   -2.8900 C.2      1 ZINC000432253027    0.2100
16     N16     0.8683   -9.6726   -3.5884 N.2      1 ZINC000432253027   -0.2700
17     N17     1.3421  -10.1443   -4.6897 N.2      1 ZINC000432253027   -0.0500
18     N18     2.6185   -9.9781   -4.7121 N.2      1 ZINC000432253027   -0.0700
19     N19     2.9805   -9.3899   -3.6222 N.pl3    1 ZINC000432253027   -0.3100
20     C20     4.3464   -9.0155   -3.2479 C.3      1 ZINC000432253027    0.0700
21     C21     4.6439   -7.6018   -3.7516 C.3      1 ZINC000432253027    0.4300
22     F22     3.7397   -6.7021   -3.1770 F        1 ZINC000432253027   -0.1500
23     F23     5.9484   -7.2442   -3.3941 F        1 ZINC000432253027   -0.1700
24     F24     4.5157   -7.5663   -5.1443 F        1 ZINC000432253027   -0.1700
25     C25     2.2781   -3.8068   -0.0263 C.2      1 ZINC000432253027   -0.2500
26     S26     1.6222   -2.1709   -0.0263 S.3      1 ZINC000432253027    0.1600
27     H27     1.0053    1.8021    0.0021 H        1 ZINC000432253027    0.1000
28     H28    -0.5445    1.7859   -0.8732 H        1 ZINC000432253027    0.0600
29     H29    -0.5275    1.7763    0.9067 H        1 ZINC000432253027    0.0600
30     H30    -2.3328    1.1780    0.0204 H        1 ZINC000432253027    0.1400
31     H31    -4.5079    0.0313    0.0363 H        1 ZINC000432253027    0.1300
32     H32    -4.6157   -2.4251    0.0340 H        1 ZINC000432253027    0.1300
33     H33    -2.5482   -3.7550    0.0174 H        1 ZINC000432253027    0.1400
34     H34     2.4015   -6.3961    0.4836 H        1 ZINC000432253027    0.1000
35     H35     0.6390   -6.6441    0.4981 H        1 ZINC000432253027    0.1100
36     H36     2.7161   -8.7185   -0.9899 H        1 ZINC000432253027    0.1100
37     H37     0.9536   -8.9664   -0.9753 H        1 ZINC000432253027    0.1300
38     H38     4.4463   -9.0431   -2.1628 H        1 ZINC000432253027    0.1500
39     H39     5.0509   -9.7165   -3.6956 H        1 ZINC000432253027    0.1600
40     H40     3.3258   -4.0688   -0.0348 H        1 ZINC000432253027    0.1800
@<TRIPOS>BOND
1     1     2     1
2     1     27    1
3     1     28    1
4     1     29    1
5     2     3     1
6     3     8     ar
7     3     4     ar
8     4     5     ar
9     4     30    1
10    5     6     ar
11    5     31    1
12    6     7     ar
13    6     32    1
14    7     8     ar
15    7     33    1
16    8     9     1
17    9     26    1
18    9     10    2
19    10    11    1
20    11    12    1
21    11    25    2
22    12    13    1
23    12    34    1
24    12    35    1
25    13    14    1
26    14    15    1
27    14    36    1
28    14    37    1
29    15    19    1
30    15    16    2
31    16    17    1
32    17    18    2
33    18    19    1
34    19    20    1
35    20    21    1
36    20    38    1
37    20    39    1
38    21    22    1
39    21    23    1
40    21    24    1
41    25    26    1
42    25    40    1
@<TRIPOS>SUBSTRUCTURE
1   ZINC000432253027 1     RESIDUE    1   A     ZIN   1
@<TRIPOS>MOLECULE
ZINC000523153175
69	71	1	0	0
SMALL
USER_CHARGES
@<TRIPOS>ATOM
1      C1     -0.0187    1.5258    0.0104 C.3      1 ZINC000523153175   -0.1500
2      C2      0.0021   -0.0041    0.0020 C.3      1 ZINC000523153175   -0.0600
3      C3      0.7421   -0.5109    1.2415 C.3      1 ZINC000523153175   -0.1400
4      C4     -1.4117   -0.5257    0.0127 C.ar     1 ZINC000523153175   -0.0800
5      C5     -2.2591   -0.2043    1.0565 C.ar     1 ZINC000523153175   -0.1100
6      C6     -3.5560   -0.6827    1.0663 C.ar     1 ZINC000523153175   -0.1100
7      C7     -4.0056   -1.4823    0.0321 C.ar     1 ZINC000523153175   -0.0800
8      C8     -5.4193   -2.0043    0.0431 C.3      1 ZINC000523153175   -0.0300
9      H9     -5.9307   -1.6493    0.9378 H        1 ZINC000523153175    0.0800
10     C10    -6.1578   -1.5026   -1.1994 C.3      1 ZINC000523153175   -0.1500
11     C11    -5.3980   -3.5341    0.0408 C.3      1 ZINC000523153175   -0.1300
12     C12    -6.8052   -4.0562    0.1755 C.2      1 ZINC000523153175    0.5200
13     O13    -7.7337   -3.2811    0.2646 O.2      1 ZINC000523153175   -0.5300
14     N14    -7.0320   -5.3846    0.1970 N.am     1 ZINC000523153175   -0.6200
15     C15    -5.9199   -6.3420    0.0965 C.3      1 ZINC000523153175    0.1100
16     C16    -6.0397   -7.3495    1.2448 C.3      1 ZINC000523153175    0.0400
17     N17    -7.3801   -7.9503    1.2271 N.3      1 ZINC000523153175   -0.5100
18     C18    -7.4797   -9.0440    2.2028 C.3      1 ZINC000523153175    0.0600
19     H19    -6.6393   -9.7256    2.0716 H        1 ZINC000523153175    0.1100
20     C20    -7.4524   -8.4675    3.6197 C.3      1 ZINC000523153175   -0.1800
21     C21    -8.7708   -9.7915    1.9893 C.2      1 ZINC000523153175    0.5200
22     O22    -9.5328   -9.4471    1.1110 O.2      1 ZINC000523153175   -0.5200
23     N23    -9.0785  -10.8428    2.7746 N.am     1 ZINC000523153175   -0.7200
24     C24   -10.3336  -11.5694    2.5671 C.3      1 ZINC000523153175    0.1400
25     C25   -10.1310  -12.6867    1.5229 C.3      1 ZINC000523153175   -0.1300
26     C26    -9.8527  -13.9529    2.3704 C.3      1 ZINC000523153175   -0.1300
27     C27   -10.8085  -13.7740    3.5760 C.3      1 ZINC000523153175   -0.1300
28     C28   -10.7644  -12.2608    3.8726 C.3      1 ZINC000523153175   -0.1300
29     C29    -8.4202   -6.9397    1.4611 C.3      1 ZINC000523153175    0.0400
30     C30    -8.3974   -5.9154    0.3278 C.3      1 ZINC000523153175    0.1200
31     C31    -3.1586   -1.8025   -1.0123 C.ar     1 ZINC000523153175   -0.1100
32     C32    -1.8629   -1.3209   -1.0241 C.ar     1 ZINC000523153175   -0.1200
33     H33     1.0039    1.9031    0.0027 H        1 ZINC000523153175    0.0600
34     H34    -0.5459    1.8868   -0.8726 H        1 ZINC000523153175    0.0600
35     H35    -0.5289    1.8773    0.9072 H        1 ZINC000523153175    0.0600
36     H36     0.5123   -0.3556   -0.8948 H        1 ZINC000523153175    0.0800
37     H37     0.2319   -0.1594    2.1383 H        1 ZINC000523153175    0.0600
38     H38     0.7568   -1.6008    1.2356 H        1 ZINC000523153175    0.0600
39     H39     1.7647   -0.1336    1.2338 H        1 ZINC000523153175    0.0600
40     H40    -1.9079    0.4204    1.8645 H        1 ZINC000523153175    0.1200
41     H41    -4.2179   -0.4322    1.8822 H        1 ZINC000523153175    0.1200
42     H42    -7.1803   -1.8802   -1.1915 H        1 ZINC000523153175    0.0800
43     H43    -6.1729   -0.4127   -1.1978 H        1 ZINC000523153175    0.0600
44     H44    -5.6463   -1.8576   -2.0941 H        1 ZINC000523153175    0.0500
45     H45    -4.9664   -3.8901   -0.8947 H        1 ZINC000523153175    0.0900
46     H46    -4.7967   -3.8904    0.8772 H        1 ZINC000523153175    0.0900
47     H47    -5.9733   -6.8662   -0.8577 H        1 ZINC000523153175    0.0800
48     H48    -4.9713   -5.8106    0.1730 H        1 ZINC000523153175    0.0900
49     H49    -5.2893   -8.1307    1.1231 H        1 ZINC000523153175    0.0900
50     H50    -5.8827   -6.8387    2.1948 H        1 ZINC000523153175    0.0400
51     H51    -8.2929   -7.7859    3.7509 H        1 ZINC000523153175    0.0700
52     H52    -7.5264   -9.2790    4.3436 H        1 ZINC000523153175    0.0700
53     H53    -6.5186   -7.9268    3.7741 H        1 ZINC000523153175    0.0700
54     H54    -8.4690  -11.1182    3.4771 H        1 ZINC000523153175    0.4000
55     H55   -11.1117  -10.8826    2.2340 H        1 ZINC000523153175    0.0900
56     H56   -11.0329  -12.8183    0.9251 H        1 ZINC000523153175    0.0700
57     H57    -9.2778  -12.4607    0.8831 H        1 ZINC000523153175    0.0700
58     H58   -10.1013  -14.8546    1.8108 H        1 ZINC000523153175    0.0700
59     H59    -8.8142  -13.9760    2.7008 H        1 ZINC000523153175    0.0700
60     H60   -11.8198  -14.0813    3.3099 H        1 ZINC000523153175    0.0700
61     H61   -10.4498  -14.3416    4.4347 H        1 ZINC000523153175    0.0700
62     H62   -10.0396  -12.0557    4.6605 H        1 ZINC000523153175    0.0700
63     H63   -11.7519  -11.9101    4.1725 H        1 ZINC000523153175    0.0800
64     H64    -9.3962   -7.4237    1.4962 H        1 ZINC000523153175    0.1000
65     H65    -8.2300   -6.4346    2.4081 H        1 ZINC000523153175    0.0400
66     H66    -9.0876   -5.1028    0.5547 H        1 ZINC000523153175    0.1000
67     H67    -8.6880   -6.3962   -0.6063 H        1 ZINC000523153175    0.0800
68     H68    -3.5100   -2.4269   -1.8205 H        1 ZINC000523153175    0.1200
69     H69    -1.2012   -1.5711   -1.8401 H        1 ZINC000523153175    0.1200
@<TRIPOS>BOND
1     1     2     1
2     1     33    1
3     1     34    1
4     1     35    1
5     2     3     1
6     2     4     1
7     2     36    1
8     3     37    1
9     3     38    1
10    3     39    1
11    4     32    ar
12    4     5     ar
13    5     6     ar
14    5     40    1
15    6     7     ar
16    6     41    1
17    7     8     1
18    7     31    ar
19    8     9     1
20    8     10    1
21    8     11    1
22    10    42    1
23    10    43    1
24    10    44    1
25    11    12    1
26    11    45    1
27    11    46    1
28    12    13    2
29    12    14    am
30    14    30    1
31    14    15    1
32    15    16    1
33    15    47    1
34    15    48    1
35    16    17    1
36    16    49    1
37    16    50    1
38    17    18    1
39    17    29    1
40    18    19    1
41    18    20    1
42    18    21    1
43    20    51    1
44    20    52    1
45    20    53    1
46    21    22    2
47    21    23    am
48    23    24    1
49    23    54    1
50    24    28    1
51    24    25    1
52    24    55    1
53    25    26    1
54    25    56    1
55    25    57    1
56    26    27    1
57    26    58    1
58    26    59    1
59    27    28    1
60    27    60    1
61    27    61    1
62    28    62    1
63    28    63    1
64    29    30    1
65    29    64    1
66    29    65    1
67    30    66    1
68    30    67    1
69    31    32    ar
70    31    68    1
71    32    69    1
@<TRIPOS>SUBSTRUCTURE
1   ZINC000523153175 1     RESIDUE    1   A     ZIN   1
@<TRIPOS>MOLECULE
ZINC000440379747
49	51	1	0	0
SMALL
USER_CHARGES
@<TRIPOS>ATOM
1      C1     -1.8662   -3.2001   -1.6306 C.3      1 ZINC000440379747   -0.1800
2      C2     -1.0161   -2.2252   -0.8573 C.2      1 ZINC000440379747    0.5200
3      O3      0.1800   -2.4044   -0.7645 O.2      1 ZINC000440379747   -0.5200
4      N4     -1.5848   -1.1544   -0.2687 N.am     1 ZINC000440379747   -0.5500
5      C5     -0.8639   -0.1378    0.5019 C.3      1 ZINC000440379747    0.1100
6      C6     -1.9398    0.8609    0.9584 C.3      1 ZINC000440379747   -0.0900
7      C7     -3.2315    0.3152    0.3923 C.ar     1 ZINC000440379747   -0.1100
8      C8     -4.5260    0.7877    0.4759 C.ar     1 ZINC000440379747   -0.0700
9      C9     -5.5612    0.0959   -0.1403 C.ar     1 ZINC000440379747    0.1200
10     N10    -6.8728    0.5733   -0.0570 N.am     1 ZINC000440379747   -0.6400
11     C11    -7.1052    1.9000   -0.0083 C.2      1 ZINC000440379747    0.5100
12     O12    -6.1851    2.6822   -0.1308 O.2      1 ZINC000440379747   -0.4900
13     C13    -8.4946    2.4076    0.1965 C.2      1 ZINC000440379747    0.5200
14     O14    -9.4145    1.6255    0.3191 O.2      1 ZINC000440379747   -0.5100
15     N15    -8.7270    3.7343    0.2452 N.am     1 ZINC000440379747   -0.5800
16     C16    -7.7299    4.7910   -0.0052 C.3      1 ZINC000440379747    0.1000
17     C17    -8.5600    6.0242   -0.4408 C.3      1 ZINC000440379747   -0.1300
18     C18    -9.8111    5.8943    0.4676 C.3      1 ZINC000440379747   -0.1600
19     C19   -10.0183    4.3673    0.5506 C.3      1 ZINC000440379747    0.1500
20     H20   -10.7703    4.0553   -0.1742 H        1 ZINC000440379747    0.1000
21     C21   -10.4633    3.9785    1.9619 C.3      1 ZINC000440379747   -0.6500
22     S22   -12.0444    4.7831    2.3405 S.o2     1 ZINC000440379747    2.6200
23     N23   -12.4240    4.2524    3.8625 N.am     1 ZINC000440379747   -1.2500
24     O24   -11.8669    6.1848    2.4922 O.2      1 ZINC000440379747   -0.9500
25     O25   -13.0792    4.2603    1.5189 O.2      1 ZINC000440379747   -0.9500
26     C26    -5.2867   -1.0724   -0.8401 C.ar     1 ZINC000440379747   -0.1000
27     C27    -3.9941   -1.5421   -0.9223 C.ar     1 ZINC000440379747   -0.1400
28     C28    -2.9497   -0.8471   -0.3092 C.ar     1 ZINC000440379747    0.1400
29     H29    -1.2358   -3.9941   -2.0307 H        1 ZINC000440379747    0.1000
30     H30    -2.6176   -3.6312   -0.9691 H        1 ZINC000440379747    0.1000
31     H31    -2.3601   -2.6799   -2.4513 H        1 ZINC000440379747    0.1000
32     H32    -0.3787   -0.5920    1.3659 H        1 ZINC000440379747    0.0900
33     H33    -0.1271    0.3616   -0.1272 H        1 ZINC000440379747    0.0900
34     H34    -1.9872    0.8974    2.0468 H        1 ZINC000440379747    0.0900
35     H35    -1.7354    1.8516    0.5525 H        1 ZINC000440379747    0.1000
36     H36    -4.7342    1.6962    1.0214 H        1 ZINC000440379747    0.1400
37     H37    -7.6154   -0.0503   -0.0342 H        1 ZINC000440379747    0.4200
38     H38    -7.1733    5.0109    0.9058 H        1 ZINC000440379747    0.0800
39     H39    -7.0504    4.4901   -0.8026 H        1 ZINC000440379747    0.1000
40     H40    -8.0222    6.9497   -0.2350 H        1 ZINC000440379747    0.1000
41     H41    -8.8334    5.9590   -1.4940 H        1 ZINC000440379747    0.0800
42     H42    -9.6168    6.3149    1.4541 H        1 ZINC000440379747    0.1000
43     H43   -10.6744    6.3737    0.0059 H        1 ZINC000440379747    0.1000
44     H44   -10.5830    2.8967    2.0200 H        1 ZINC000440379747    0.1500
45     H45    -9.7105    4.3000    2.6816 H        1 ZINC000440379747    0.1400
46     H46   -11.8287    3.6428    4.3262 H        1 ZINC000440379747    0.4100
47     H47   -13.2417    4.5510    4.2904 H        1 ZINC000440379747    0.4200
48     H48    -6.0883   -1.6137   -1.3204 H        1 ZINC000440379747    0.1400
49     H49    -3.7869   -2.4511   -1.4674 H        1 ZINC000440379747    0.1500
@<TRIPOS>BOND
1     1     2     1
2     1     29    1
3     1     30    1
4     1     31    1
5     2     3     2
6     2     4     am
7     4     28    1
8     4     5     1
9     5     6     1
10    5     32    1
11    5     33    1
12    6     7     1
13    6     34    1
14    6     35    1
15    7     28    ar
16    7     8     ar
17    8     9     ar
18    8     36    1
19    9     10    1
20    9     26    ar
21    10    11    am
22    10    37    1
23    11    12    2
24    11    13    1
25    13    14    2
26    13    15    am
27    15    19    1
28    15    16    1
29    16    17    1
30    16    38    1
31    16    39    1
32    17    18    1
33    17    40    1
34    17    41    1
35    18    19    1
36    18    42    1
37    18    43    1
38    19    20    1
39    19    21    1
40    21    22    1
41    21    44    1
42    21    45    1
43    22    23    am
44    22    24    2
45    22    25    2
46    23    46    1
47    23    47    1
48    26    27    ar
49    26    48    1
50    27    28    ar
51    27    49    1
@<TRIPOS>SUBSTRUCTURE
1   ZINC000440379747 1     RESIDUE    1   A     ZIN   1
@<TRIPOS>MOLECULE
ZINC001090961577
48	49	1	0	0
SMALL
USER_CHARGES
@<TRIPOS>ATOM
1      C1     -0.0187    1.5258    0.0104 C.3      1 ZINC001090961577   -0.1400
2      C2      0.0021   -0.0041    0.0020 C.3      1 ZINC001090961577   -0.0900
3      S3     -1.6997   -0.6320    0.0149 S.3      1 ZINC001090961577   -0.2700
4      C4     -1.4709   -2.4314    0.0030 C.3      1 ZINC001090961577   -0.0700
5      C5     -2.8374   -3.1194    0.0124 C.3      1 ZINC001090961577   -0.1200
6      C6     -2.6473   -4.6143    0.0026 C.2      1 ZINC001090961577    0.5400
7      O7     -1.5289   -5.0833   -0.0106 O.2      1 ZINC001090961577   -0.5300
8      N8     -3.7201   -5.4301    0.0084 N.am     1 ZINC001090961577   -0.6200
9      C9     -3.6790   -6.8998    0.0060 C.3      1 ZINC001090961577    0.1100
10     C10    -5.1388   -7.3990    0.0431 C.3      1 ZINC001090961577   -0.1100
11     H11    -5.4942   -7.6266   -0.9619 H        1 ZINC001090961577    0.0900
12     C12    -5.2693   -8.6233    0.9514 C.3      1 ZINC001090961577   -0.1400
13     C13    -5.9056   -6.1871    0.6352 C.3      1 ZINC001090961577    0.1500
14     H14    -5.8387   -6.1761    1.7231 H        1 ZINC001090961577    0.1200
15     N15    -7.3038   -6.1858    0.1979 N.pl3    1 ZINC001090961577   -0.6700
16     C16    -8.2645   -5.5566    0.9614 C.ar     1 ZINC001090961577    0.5900
17     N17    -7.9005   -4.9539    2.0859 N.ar     1 ZINC001090961577   -0.5700
18     C18    -8.7891   -4.3407    2.8445 C.ar     1 ZINC001090961577    0.2700
19     C19   -10.1329   -4.3331    2.4462 C.ar     1 ZINC001090961577   -0.3000
20     C20   -11.1599   -3.6601    3.2622 C.2      1 ZINC001090961577    0.5300
21     O21   -10.8459   -3.1023    4.2950 O.2      1 ZINC001090961577   -0.5100
22     O22   -12.4467   -3.6635    2.8627 O.3      1 ZINC001090961577   -0.3600
23     C23   -13.4036   -2.9813    3.7156 C.3      1 ZINC001090961577    0.0400
24     C24   -10.4747   -4.9816    1.2516 C.ar     1 ZINC001090961577    0.2600
25     N25    -9.5250   -5.5672    0.5472 N.ar     1 ZINC001090961577   -0.5700
26     C26    -5.1291   -4.9966    0.0247 C.3      1 ZINC001090961577    0.0900
27     H27     1.0039    1.9031    0.0027 H        1 ZINC001090961577    0.0700
28     H28    -0.5459    1.8868   -0.8726 H        1 ZINC001090961577    0.0700
29     H29    -0.5289    1.8773    0.9072 H        1 ZINC001090961577    0.0700
30     H30     0.5123   -0.3556   -0.8948 H        1 ZINC001090961577    0.0800
31     H31     0.5293   -0.3651    0.8851 H        1 ZINC001090961577    0.0800
32     H32    -0.9238   -2.7222   -0.8938 H        1 ZINC001090961577    0.0900
33     H33    -0.9068   -2.7318    0.8861 H        1 ZINC001090961577    0.0900
34     H34    -3.3845   -2.8286    0.9092 H        1 ZINC001090961577    0.1000
35     H35    -3.4015   -2.8191   -0.8706 H        1 ZINC001090961577    0.1000
36     H36    -3.1885   -7.2554   -0.9000 H        1 ZINC001090961577    0.0800
37     H37    -3.1426   -7.2570    0.8851 H        1 ZINC001090961577    0.0800
38     H38    -4.9373   -8.3665    1.9573 H        1 ZINC001090961577    0.0600
39     H39    -6.3110   -8.9428    0.9831 H        1 ZINC001090961577    0.0600
40     H40    -4.6527   -9.4328    0.5608 H        1 ZINC001090961577    0.0700
41     H41    -7.5538   -6.6275   -0.6288 H        1 ZINC001090961577    0.4200
42     H42    -8.4855   -3.8525    3.7588 H        1 ZINC001090961577    0.1800
43     H43   -14.3995   -3.0596    3.2794 H        1 ZINC001090961577    0.1100
44     H44   -13.4024   -3.4416    4.7036 H        1 ZINC001090961577    0.0700
45     H45   -13.1271   -1.9307    3.8039 H        1 ZINC001090961577    0.0700
46     H46   -11.4993   -4.9981    0.9106 H        1 ZINC001090961577    0.1800
47     H47    -5.2489   -4.1078    0.6442 H        1 ZINC001090961577    0.0900
48     H48    -5.4721   -4.8010   -0.9913 H        1 ZINC001090961577    0.0800
@<TRIPOS>BOND
1     1     2     1
2     1     27    1
3     1     28    1
4     1     29    1
5     2     3     1
6     2     30    1
7     2     31    1
8     3     4     1
9     4     5     1
10    4     32    1
11    4     33    1
12    5     6     1
13    5     34    1
14    5     35    1
15    6     7     2
16    6     8     am
17    8     26    1
18    8     9     1
19    9     10    1
20    9     36    1
21    9     37    1
22    10    11    1
23    10    12    1
24    10    13    1
25    12    38    1
26    12    39    1
27    12    40    1
28    13    14    1
29    13    15    1
30    13    26    1
31    15    16    1
32    15    41    1
33    16    25    ar
34    16    17    ar
35    17    18    ar
36    18    19    ar
37    18    42    1
38    19    20    1
39    19    24    ar
40    20    21    2
41    20    22    1
42    22    23    1
43    23    43    1
44    23    44    1
45    23    45    1
46    24    25    ar
47    24    46    1
48    26    47    1
49    26    48    1
@<TRIPOS>SUBSTRUCTURE
1   ZINC001090961577 1     RESIDUE    1   A     ZIN   1
@<TRIPOS>MOLECULE
ZINC000742270208
37	38	1	0	0
SMALL
USER_CHARGES
@<TRIPOS>ATOM
1      C1     -0.0187    1.5258    0.0104 C.3      1 ZINC000742270208   -0.1400
2      C2      0.0021   -0.0041    0.0020 C.3      1 ZINC000742270208   -0.1400
3      C3      0.7421   -0.5109    1.2415 C.3      1 ZINC000742270208   -0.1400
4      C4     -1.4117   -0.5257    0.0127 C.2      1 ZINC000742270208    0.4000
5      O5     -1.9705   -0.7412    1.0670 O.2      1 ZINC000742270208   -0.4300
6      C6     -2.1142   -0.7735   -1.2565 C.ar     1 ZINC000742270208   -0.1000
7      C7     -1.4712   -0.5317   -2.4746 C.ar     1 ZINC000742270208   -0.0900
8      C8     -2.1362   -0.7663   -3.6596 C.ar     1 ZINC000742270208   -0.0200
9      C9     -3.4367   -1.2395   -3.6455 C.ar     1 ZINC000742270208   -0.6800
10     S10    -4.2778   -1.5362   -5.1651 S.o2     1 ZINC000742270208    2.6600
11     O11    -5.6671   -1.4641   -4.8755 O.2      1 ZINC000742270208   -0.9300
12     O12    -3.6438   -0.7203   -6.1406 O.2      1 ZINC000742270208   -0.9000
13     O13    -3.9959   -2.9783   -5.5620 O.3      1 ZINC000742270208   -0.6400
14     C14    -4.6857   -3.8973   -4.8344 C.ar     1 ZINC000742270208    0.0500
15     C15    -4.1423   -4.4062   -3.6629 C.ar     1 ZINC000742270208    0.0900
16     F16    -2.9274   -3.9890   -3.2443 F        1 ZINC000742270208   -0.0900
17     C17    -4.8468   -5.3419   -2.9230 C.ar     1 ZINC000742270208    0.1100
18     F18    -4.3183   -5.8375   -1.7827 F        1 ZINC000742270208   -0.1000
19     C19    -6.0921   -5.7690   -3.3510 C.ar     1 ZINC000742270208   -0.1100
20     C20    -6.6356   -5.2629   -4.5194 C.ar     1 ZINC000742270208    0.1200
21     F21    -7.8511   -5.6813   -4.9351 F        1 ZINC000742270208   -0.1000
22     C22    -5.9366   -4.3232   -5.2594 C.ar     1 ZINC000742270208    0.1200
23     F23    -6.4676   -3.8293   -6.3992 F        1 ZINC000742270208   -0.0900
24     C24    -4.0799   -1.4814   -2.4441 C.ar     1 ZINC000742270208   -0.0300
25     C25    -3.4263   -1.2576   -1.2507 C.ar     1 ZINC000742270208   -0.0800
26     H26     1.0039    1.9031    0.0027 H        1 ZINC000742270208    0.0700
27     H27    -0.5459    1.8868   -0.8726 H        1 ZINC000742270208    0.0600
28     H28    -0.5289    1.8773    0.9072 H        1 ZINC000742270208    0.0600
29     H29     0.5123   -0.3556   -0.8948 H        1 ZINC000742270208    0.1000
30     H30     0.2319   -0.1594    2.1383 H        1 ZINC000742270208    0.0700
31     H31     0.7568   -1.6008    1.2356 H        1 ZINC000742270208    0.0600
32     H32     1.7647   -0.1336    1.2338 H        1 ZINC000742270208    0.0700
33     H33    -0.4566   -0.1617   -2.4872 H        1 ZINC000742270208    0.1500
34     H34    -1.6410   -0.5800   -4.6011 H        1 ZINC000742270208    0.1500
35     H35    -6.6403   -6.4982   -2.7729 H        1 ZINC000742270208    0.1900
36     H36    -5.0948   -1.8506   -2.4413 H        1 ZINC000742270208    0.1500
37     H37    -3.9295   -1.4468   -0.3140 H        1 ZINC000742270208    0.1500
@<TRIPOS>BOND
1     1     2     1
2     1     26    1
3     1     27    1
4     1     28    1
5     2     3     1
6     2     4     1
7     2     29    1
8     3     30    1
9     3     31    1
10    3     32    1
11    4     5     2
12    4     6     1
13    6     25    ar
14    6     7     ar
15    7     8     ar
16    7     33    1
17    8     9     ar
18    8     34    1
19    9     10    1
20    9     24    ar
21    10    11    2
22    10    12    2
23    10    13    1
24    13    14    1
25    14    22    ar
26    14    15    ar
27    15    16    1
28    15    17    ar
29    17    18    1
30    17    19    ar
31    19    20    ar
32    19    35    1
33    20    21    1
34    20    22    ar
35    22    23    1
36    24    25    ar
37    24    36    1
38    25    37    1
@<TRIPOS>SUBSTRUCTURE
1   ZINC000742270208 1     RESIDUE    1   A     ZIN   1
@<TRIPOS>MOLECULE
ZINC000655235556
40	42	1	0	0
SMALL
USER_CHARGES
@<TRIPOS>ATOM
1      C1     -0.0173    1.4248    0.0099 C.3      1 ZINC000655235556    0.0200
2      O2      0.0021   -0.0041    0.0020 O.3      1 ZINC000655235556   -0.2700
3      C3      0.6047   -0.6060   -1.0538 C.ar     1 ZINC000655235556    0.2000
4      C4      1.1720    0.1593   -2.0606 C.ar     1 ZINC000655235556   -0.2100
5      C5      1.7862   -0.4557   -3.1357 C.ar     1 ZINC000655235556    0.0300
6      Cl6     2.4946    0.5092   -4.3930 Cl       1 ZINC000655235556   -0.0500
7      C7      1.8399   -1.8390   -3.2150 C.ar     1 ZINC000655235556   -0.1600
8      C8      1.2808   -2.6140   -2.2226 C.ar     1 ZINC000655235556   -0.0300
9      C9      0.6615   -2.0050   -1.1284 C.ar     1 ZINC000655235556   -0.1700
10     C10     0.0616   -2.8292   -0.0627 C.2      1 ZINC000655235556    0.5700
11     O11    -0.4767   -2.2957    0.8883 O.2      1 ZINC000655235556   -0.5100
12     N12     0.1100   -4.1737   -0.1427 N.am     1 ZINC000655235556   -0.7300
13     C13    -0.4859   -4.9925    0.9160 C.3      1 ZINC000655235556    0.2100
14     C14    -0.2976   -6.4514    0.5888 C.2      1 ZINC000655235556    0.2600
15     N15    -1.0735   -7.1730   -0.1787 N.2      1 ZINC000655235556   -0.5100
16     C16    -0.6088   -8.4199   -0.2466 C.2      1 ZINC000655235556    0.2200
17     C17    -1.2304   -9.5444   -1.0342 C.3      1 ZINC000655235556    0.1700
18     H18    -1.9427   -9.1417   -1.7542 H        1 ZINC000655235556    0.1100
19     C19    -1.9481  -10.5200   -0.0769 C.3      1 ZINC000655235556   -0.1400
20     C20    -1.6128  -11.9016   -0.7020 C.3      1 ZINC000655235556   -0.1500
21     C21    -0.1871  -11.6387   -1.2490 C.3      1 ZINC000655235556    0.0500
22     O22    -0.2099  -10.2797   -1.7194 O.3      1 ZINC000655235556   -0.3700
23     N23     0.4740   -8.5094    0.4801 N.2      1 ZINC000655235556   -0.2800
24     N24     0.7000   -7.2370    1.0300 N.pl3    1 ZINC000655235556   -0.4700
25     H25     1.0053    1.8021    0.0021 H        1 ZINC000655235556    0.0600
26     H26    -0.5445    1.7859   -0.8732 H        1 ZINC000655235556    0.0600
27     H27    -0.5275    1.7763    0.9067 H        1 ZINC000655235556    0.1100
28     H28     1.1339    1.2372   -2.0053 H        1 ZINC000655235556    0.1500
29     H29     2.3217   -2.3108   -4.0585 H        1 ZINC000655235556    0.1400
30     H30     1.3247   -3.6911   -2.2886 H        1 ZINC000655235556    0.1400
31     H31     0.5394   -4.5993   -0.9013 H        1 ZINC000655235556    0.4000
32     H32    -0.0007   -4.7676    1.8658 H        1 ZINC000655235556    0.1000
33     H33    -1.5506   -4.7713    0.9906 H        1 ZINC000655235556    0.1100
34     H34    -1.5429  -10.4420    0.9320 H        1 ZINC000655235556    0.0800
35     H35    -3.0238  -10.3442   -0.0787 H        1 ZINC000655235556    0.0900
36     H36    -1.6044  -12.6843    0.0566 H        1 ZINC000655235556    0.0900
37     H37    -2.3041  -12.1461   -1.5084 H        1 ZINC000655235556    0.0800
38     H38     0.5500  -11.7523   -0.4541 H        1 ZINC000655235556    0.0600
39     H39     0.0340  -12.3192   -2.0712 H        1 ZINC000655235556    0.0900
40     H40     1.4277   -6.9782    1.6168 H        1 ZINC000655235556    0.4400
@<TRIPOS>BOND
1     1     2     1
2     1     25    1
3     1     26    1
4     1     27    1
5     2     3     1
6     3     9     ar
7     3     4     ar
8     4     5     ar
9     4     28    1
10    5     6     1
11    5     7     ar
12    7     8     ar
13    7     29    1
14    8     9     ar
15    8     30    1
16    9     10    1
17    10    11    2
18    10    12    am
19    12    13    1
20    12    31    1
21    13    14    1
22    13    32    1
23    13    33    1
24    14    24    1
25    14    15    2
26    15    16    1
27    16    17    1
28    16    23    2
29    17    18    1
30    17    22    1
31    17    19    1
32    19    20    1
33    19    34    1
34    19    35    1
35    20    21    1
36    20    36    1
37    20    37    1
38    21    22    1
39    21    38    1
40    21    39    1
41    23    24    1
42    24    40    1
@<TRIPOS>SUBSTRUCTURE
1   ZINC000655235556 1     RESIDUE    1   A     ZIN   1
@<TRIPOS>MOLECULE
ZINC000854500114
47	49	1	0	0
SMALL
USER_CHARGES
@<TRIPOS>ATOM
1      O1      0.1589    0.7083    0.6524 O.2      1 ZINC000854500114   -0.5800
2      C2     -0.1594    1.8795    0.7122 C.2      1 ZINC000854500114    0.6600
3      N3      0.7608    2.8127    1.0268 N.am     1 ZINC000854500114   -0.7100
4      C4      2.1448    2.4150    1.2966 C.3      1 ZINC000854500114    0.1600
5      C5      2.9498    2.3776   -0.0188 C.3      1 ZINC000854500114   -0.1400
6      C6      3.6443    3.7608   -0.0785 C.3      1 ZINC000854500114   -0.1300
7      C7      4.0219    4.0178    1.4015 C.3      1 ZINC000854500114   -0.1300
8      C8      2.8264    3.4579    2.1996 C.3      1 ZINC000854500114   -0.1300
9      O9     -1.4300    2.2456    0.4589 O.3      1 ZINC000854500114   -0.3600
10     C10    -2.3657    1.1881    0.1207 C.3      1 ZINC000854500114    0.1000
11     C11    -3.7486    1.7922   -0.1315 C.3      1 ZINC000854500114    0.1500
12     H12    -4.0314    2.4224    0.7116 H        1 ZINC000854500114    0.0900
13     C13    -4.7766    0.6690   -0.3007 C.3      1 ZINC000854500114   -0.1300
14     C14    -6.1275    1.2737   -0.6899 C.3      1 ZINC000854500114   -0.1200
15     C15    -5.9931    2.0104   -2.0245 C.3      1 ZINC000854500114   -0.1400
16     C16    -4.9789    3.1488   -1.8749 C.3      1 ZINC000854500114    0.0900
17     N17    -3.7176    2.5977   -1.3599 N.am     1 ZINC000854500114   -0.6100
18     C18    -2.5558    2.8227   -2.0050 C.2      1 ZINC000854500114    0.5900
19     O19    -1.5416    2.2546   -1.6471 O.2      1 ZINC000854500114   -0.4900
20     C20    -2.5144    3.7556   -3.1423 C.2      1 ZINC000854500114   -0.0300
21     C21    -1.5582    3.8049   -4.1417 C.2      1 ZINC000854500114   -0.1200
22     C22    -1.9539    4.8498   -4.9811 C.2      1 ZINC000854500114    0.0200
23     Br23   -1.0557    5.4249   -6.5427 Br       1 ZINC000854500114    0.0400
24     N24    -3.0571    5.3595   -4.4944 N.2      1 ZINC000854500114   -0.2400
25     N25    -3.4151    4.7425   -3.4263 N.pl3    1 ZINC000854500114   -0.3700
26     H26     0.5068    3.7476    1.0746 H        1 ZINC000854500114    0.4000
27     H27     2.1650    1.4361    1.7756 H        1 ZINC000854500114    0.0900
28     H28     3.6914    1.5793    0.0104 H        1 ZINC000854500114    0.0800
29     H29     2.2825    2.2487   -0.8710 H        1 ZINC000854500114    0.0700
30     H30     4.5367    3.7183   -0.7031 H        1 ZINC000854500114    0.0700
31     H31     2.9549    4.5239   -0.4395 H        1 ZINC000854500114    0.0700
32     H32     4.9366    3.4844    1.6600 H        1 ZINC000854500114    0.0700
33     H33     4.1369    5.0860    1.5858 H        1 ZINC000854500114    0.0700
34     H34     2.1275    4.2599    2.4372 H        1 ZINC000854500114    0.0700
35     H35     3.1782    2.9849    3.1165 H        1 ZINC000854500114    0.0800
36     H36    -2.0242    0.6744   -0.7779 H        1 ZINC000854500114    0.1000
37     H37    -2.4245    0.4776    0.9452 H        1 ZINC000854500114    0.0700
38     H38    -4.4445   -0.0133   -1.0831 H        1 ZINC000854500114    0.0800
39     H39    -4.8785    0.1247    0.6382 H        1 ZINC000854500114    0.0900
40     H40    -6.8668    0.4787   -0.7868 H        1 ZINC000854500114    0.0800
41     H41    -6.4473    1.9746    0.0812 H        1 ZINC000854500114    0.0700
42     H42    -5.6495    1.3155   -2.7907 H        1 ZINC000854500114    0.0700
43     H43    -6.9609    2.4209   -2.3126 H        1 ZINC000854500114    0.0800
44     H44    -4.8055    3.6136   -2.8455 H        1 ZINC000854500114    0.0800
45     H45    -5.3634    3.8911   -1.1755 H        1 ZINC000854500114    0.0800
46     H46    -0.6907    3.1708   -4.2498 H        1 ZINC000854500114    0.1700
47     H47    -4.2019    4.9498   -2.8982 H        1 ZINC000854500114    0.4500
@<TRIPOS>BOND
1     1     2     2
2     2     3     am
3     2     9     1
4     3     4     1
5     3     26    1
6     4     8     1
7     4     5     1
8     4     27    1
9     5     6     1
10    5     28    1
11    5     29    1
12    6     7     1
13    6     30    1
14    6     31    1
15    7     8     1
16    7     32    1
17    7     33    1
18    8     34    1
19    8     35    1
20    9     10    1
21    10    11    1
22    10    36    1
23    10    37    1
24    11    12    1
25    11    17    1
26    11    13    1
27    13    14    1
28    13    38    1
29    13    39    1
30    14    15    1
31    14    40    1
32    14    41    1
33    15    16    1
34    15    42    1
35    15    43    1
36    16    17    1
37    16    44    1
38    16    45    1
39    17    18    am
40    18    19    2
41    18    20    1
42    20    25    1
43    20    21    2
44    21    22    1
45    21    46    1
46    22    23    1
47    22    24    2
48    24    25    1
49    25    47    1
@<TRIPOS>SUBSTRUCTURE
1   ZINC000854500114 1     RESIDUE    1   A     ZIN   1
@<TRIPOS>MOLECULE
ZINC001386869844
56	58	1	0	0
SMALL
USER_CHARGES
@<TRIPOS>ATOM
1      C1      5.6139    1.3987    1.2220 C.3      1 ZINC001386869844    0.0600
2      N2      4.8787    1.5698   -0.0336 N.am     1 ZINC001386869844   -0.6200
3      C3      3.5624    2.2128   -0.0298 C.3      1 ZINC001386869844    0.1100
4      C4      2.4771    1.1519    0.1636 C.3      1 ZINC001386869844    0.1000
5      N5      1.1608    1.7950    0.1674 N.am     1 ZINC001386869844   -0.7300
6      C6      0.0478    1.0512    0.3246 C.2      1 ZINC001386869844    0.5200
7      O7      0.1361   -0.1504    0.4629 O.2      1 ZINC001386869844   -0.5300
8      C8     -1.3066    1.7120    0.3222 C.3      1 ZINC001386869844   -0.1300
9      C9     -2.3922    0.6504    0.5101 C.3      1 ZINC001386869844   -0.0100
10     C10    -2.3174   -0.3635   -0.6332 C.3      1 ZINC001386869844   -0.1500
11     C11    -2.1776   -0.0680    1.8438 C.3      1 ZINC001386869844   -0.1600
12     C12    -3.7673    1.3213    0.5077 C.3      1 ZINC001386869844   -0.1500
13     C13    -4.5454    1.3423    1.8249 C.3      1 ZINC001386869844   -0.1900
14     C14    -4.9923    0.4221    0.6862 C.3      1 ZINC001386869844   -0.1800
15     C15     5.4133    1.1356   -1.1921 C.2      1 ZINC001386869844    0.5900
16     O16     4.8033    1.2791   -2.2352 O.2      1 ZINC001386869844   -0.5200
17     C17     6.7304    0.4900   -1.1955 C.2      1 ZINC001386869844   -0.0600
18     C18     7.4810    0.1746   -2.3104 C.2      1 ZINC001386869844   -0.0900
19     C19     8.6540   -0.4221   -1.8554 C.2      1 ZINC001386869844   -0.1700
20     C20     8.6057   -0.4637   -0.4973 C.2      1 ZINC001386869844    0.0500
21     C21     9.6997   -1.0458    0.3659 C.3      1 ZINC001386869844   -0.0600
22     C22    10.6027   -1.9148   -0.5174 C.3      1 ZINC001386869844   -0.1100
23     C23    11.0174   -1.1230   -1.7605 C.3      1 ZINC001386869844   -0.1200
24     C24     9.8037   -0.9440   -2.6806 C.3      1 ZINC001386869844   -0.0500
25     N25     7.4456    0.0939   -0.0863 N.pl3    1 ZINC001386869844   -0.5400
26     H26     5.4362    0.3971    1.6135 H        1 ZINC001386869844    0.0600
27     H27     6.6801    1.5338    1.0400 H        1 ZINC001386869844    0.0800
28     H28     5.2725    2.1379    1.9466 H        1 ZINC001386869844    0.0900
29     H29     3.4053    2.7244   -0.9794 H        1 ZINC001386869844    0.1000
30     H30     3.5134    2.9355    0.7847 H        1 ZINC001386869844    0.0900
31     H31     2.6342    0.6404    1.1132 H        1 ZINC001386869844    0.0700
32     H32     2.5261    0.4293   -0.6509 H        1 ZINC001386869844    0.0700
33     H33     1.0902    2.7561    0.0567 H        1 ZINC001386869844    0.4000
34     H34    -1.3599    2.4343    1.1367 H        1 ZINC001386869844    0.0900
35     H35    -1.4595    2.2238   -0.6279 H        1 ZINC001386869844    0.0900
36     H36    -1.3378   -0.8414   -0.6315 H        1 ZINC001386869844    0.0800
37     H37    -3.0909   -1.1198   -0.4993 H        1 ZINC001386869844    0.0500
38     H38    -2.4703    0.1483   -1.5834 H        1 ZINC001386869844    0.0500
39     H39    -2.2309    0.6543    2.6583 H        1 ZINC001386869844    0.0500
40     H40    -2.9511   -0.8243    1.9777 H        1 ZINC001386869844    0.0500
41     H41    -1.1980   -0.5459    1.8455 H        1 ZINC001386869844    0.0800
42     H42    -3.8682    2.1844   -0.1502 H        1 ZINC001386869844    0.1000
43     H43    -4.0777    0.8782    2.6932 H        1 ZINC001386869844    0.1000
44     H44    -5.1584    2.2192    2.0334 H        1 ZINC001386869844    0.0900
45     H45    -5.8992    0.6940    0.1460 H        1 ZINC001386869844    0.0900
46     H46    -4.8186   -0.6473    0.8053 H        1 ZINC001386869844    0.0900
47     H47     7.2097    0.3558   -3.3400 H        1 ZINC001386869844    0.1500
48     H48    10.2853   -0.2403    0.8091 H        1 ZINC001386869844    0.0800
49     H49     9.2595   -1.6568    1.1540 H        1 ZINC001386869844    0.0800
50     H50    11.4919   -2.2019    0.0437 H        1 ZINC001386869844    0.0700
51     H51    10.0604   -2.8101   -0.8213 H        1 ZINC001386869844    0.0700
52     H52    11.3929   -0.1449   -1.4598 H        1 ZINC001386869844    0.0600
53     H53    11.7997   -1.6648   -2.2921 H        1 ZINC001386869844    0.0700
54     H54     9.5331   -1.9031   -3.1221 H        1 ZINC001386869844    0.0700
55     H55    10.0430   -0.2307   -3.4694 H        1 ZINC001386869844    0.0700
56     H56     7.1625    0.1963    0.8358 H        1 ZINC001386869844    0.4200
@<TRIPOS>BOND
1     1     2     1
2     1     26    1
3     1     27    1
4     1     28    1
5     2     3     1
6     2     15    am
7     3     4     1
8     3     29    1
9     3     30    1
10    4     5     1
11    4     31    1
12    4     32    1
13    5     6     am
14    5     33    1
15    6     7     2
16    6     8     1
17    8     9     1
18    8     34    1
19    8     35    1
20    9     10    1
21    9     11    1
22    9     12    1
23    10    36    1
24    10    37    1
25    10    38    1
26    11    39    1
27    11    40    1
28    11    41    1
29    12    14    1
30    12    13    1
31    12    42    1
32    13    14    1
33    13    43    1
34    13    44    1
35    14    45    1
36    14    46    1
37    15    16    2
38    15    17    1
39    17    25    1
40    17    18    2
41    18    19    1
42    18    47    1
43    19    24    1
44    19    20    2
45    20    21    1
46    20    25    1
47    21    22    1
48    21    48    1
49    21    49    1
50    22    23    1
51    22    50    1
52    22    51    1
53    23    24    1
54    23    52    1
55    23    53    1
56    24    54    1
57    24    55    1
58    25    56    1
@<TRIPOS>SUBSTRUCTURE
1   ZINC001386869844 1     RESIDUE    1   A     ZIN   1
@<TRIPOS>MOLECULE
ZINC000740930783
45	46	1	0	0
SMALL
USER_CHARGES
@<TRIPOS>ATOM
1      C1     -0.0173    1.4248    0.0099 C.3      1 ZINC000740930783    0.0200
2      O2      0.0021   -0.0041    0.0020 O.3      1 ZINC000740930783   -0.3000
3      C3      0.6062   -0.6076   -1.0565 C.ar     1 ZINC000740930783    0.1200
4      C4      1.1706    0.1581   -2.0581 C.ar     1 ZINC000740930783   -0.1400
5      C5      1.7912   -0.4647   -3.1444 C.ar     1 ZINC000740930783   -0.0800
6      C6      2.3961    0.3493   -4.2170 C.2      1 ZINC000740930783    0.5600
7      O7      2.3547    1.5629   -4.1559 O.2      1 ZINC000740930783   -0.5300
8      N8      2.9942   -0.2528   -5.2640 N.am     1 ZINC000740930783   -0.7200
9      C9      3.5946    0.5551   -6.3285 C.3      1 ZINC000740930783    0.0900
10     C10     4.2015   -0.3670   -7.3879 C.3      1 ZINC000740930783    0.1400
11     H11     3.4206   -1.0002   -7.8089 H        1 ZINC000740930783    0.1200
12     O12     5.2066   -1.1861   -6.7871 O.3      1 ZINC000740930783   -0.5500
13     C13     4.8191    0.4640   -8.4829 C.ar     1 ZINC000740930783   -0.1100
14     C14     6.1687    0.7591   -8.4489 C.ar     1 ZINC000740930783   -0.1000
15     C15     6.7355    1.5215   -9.4535 C.ar     1 ZINC000740930783   -0.1100
16     C16     5.9525    1.9895  -10.4919 C.ar     1 ZINC000740930783   -0.1000
17     C17     4.6023    1.6951  -10.5270 C.ar     1 ZINC000740930783   -0.1100
18     C18     4.0360    0.9271   -9.5255 C.ar     1 ZINC000740930783   -0.0300
19     Cl19    2.3405    0.5568   -9.5688 Cl       1 ZINC000740930783   -0.0600
20     C20     1.8383   -1.8590   -3.2130 C.ar     1 ZINC000740930783   -0.1000
21     C21     1.2729   -2.6180   -2.2096 C.ar     1 ZINC000740930783   -0.0200
22     Cl22    1.3327   -4.3508   -2.2959 Cl       1 ZINC000740930783   -0.0300
23     C23     0.6609   -1.9986   -1.1276 C.ar     1 ZINC000740930783    0.0900
24     O24     0.1055   -2.7499   -0.1418 O.3      1 ZINC000740930783   -0.2900
25     C25     0.9488   -3.1070    0.9551 C.3      1 ZINC000740930783    0.0400
26     C26     0.1659   -3.9337    1.9424 C.2      1 ZINC000740930783    0.5200
27     N27     0.7609   -4.3864    3.0638 N.am     1 ZINC000740930783   -0.8500
28     O28    -0.9995   -4.1917    1.7278 O.2      1 ZINC000740930783   -0.5100
29     H29     1.0053    1.8021    0.0021 H        1 ZINC000740930783    0.0600
30     H30    -0.5445    1.7859   -0.8732 H        1 ZINC000740930783    0.0600
31     H31    -0.5275    1.7763    0.9067 H        1 ZINC000740930783    0.1100
32     H32     1.1320    1.2359   -2.0021 H        1 ZINC000740930783    0.1600
33     H33     3.0272   -1.2210   -5.3127 H        1 ZINC000740930783    0.4100
34     H34     2.8279    1.1798   -6.7868 H        1 ZINC000740930783    0.0900
35     H35     4.3755    1.1883   -5.9075 H        1 ZINC000740930783    0.0800
36     H36     5.9349   -0.6882   -6.3911 H        1 ZINC000740930783    0.3800
37     H37     6.7808    0.3943   -7.6374 H        1 ZINC000740930783    0.1300
38     H38     7.7903    1.7519   -9.4265 H        1 ZINC000740930783    0.1300
39     H39     6.3956    2.5857  -11.2760 H        1 ZINC000740930783    0.1400
40     H40     3.9907    2.0608  -11.3385 H        1 ZINC000740930783    0.1400
41     H41     2.3170   -2.3427   -4.0516 H        1 ZINC000740930783    0.1500
42     H42     1.7966   -3.6857    0.5883 H        1 ZINC000740930783    0.0900
43     H43     1.3107   -2.2028    1.4446 H        1 ZINC000740930783    0.0900
44     H44     1.6930   -4.1801    3.2355 H        1 ZINC000740930783    0.4000
45     H45     0.2569   -4.9185    3.6993 H        1 ZINC000740930783    0.4100
@<TRIPOS>BOND
1     1     2     1
2     1     29    1
3     1     30    1
4     1     31    1
5     2     3     1
6     3     23    ar
7     3     4     ar
8     4     5     ar
9     4     32    1
10    5     6     1
11    5     20    ar
12    6     7     2
13    6     8     am
14    8     9     1
15    8     33    1
16    9     10    1
17    9     34    1
18    9     35    1
19    10    11    1
20    10    12    1
21    10    13    1
22    12    36    1
23    13    18    ar
24    13    14    ar
25    14    15    ar
26    14    37    1
27    15    16    ar
28    15    38    1
29    16    17    ar
30    16    39    1
31    17    18    ar
32    17    40    1
33    18    19    1
34    20    21    ar
35    20    41    1
36    21    22    1
37    21    23    ar
38    23    24    1
39    24    25    1
40    25    26    1
41    25    42    1
42    25    43    1
43    26    27    am
44    26    28    2
45    27    44    1
46    27    45    1
@<TRIPOS>SUBSTRUCTURE
1   ZINC000740930783 1     RESIDUE    1   A     ZIN   1
@<TRIPOS>MOLECULE
ZINC000937331732
43	45	1	0	0
SMALL
USER_CHARGES
@<TRIPOS>ATOM
1      C1     -0.0178    1.4608    0.0101 C.3      1 ZINC000937331732    0.0600
2      N2      0.0021   -0.0041    0.0020 N.am     1 ZINC000937331732   -0.6100
3      C3      0.0224   -0.6841    1.1654 C.2      1 ZINC000937331732    0.5000
4      O4      0.0388   -1.8968    1.1588 O.2      1 ZINC000937331732   -0.5200
5      C5      0.0246    0.0623    2.4746 C.3      1 ZINC000937331732    0.1500
6      N6      0.0481   -0.8956    3.5828 N.am     1 ZINC000937331732   -0.4400
7      N7     -1.0673   -1.4588    4.2180 N.2      1 ZINC000937331732   -0.2800
8      C8     -0.6432   -2.2553    5.1454 C.2      1 ZINC000937331732    0.2600
9      N9      0.7303   -2.2408    5.1485 N.am     1 ZINC000937331732   -0.5600
10     C10     1.5941   -3.0087    6.0487 C.3      1 ZINC000937331732    0.1000
11     C11     1.1477   -1.4038    4.1776 C.2      1 ZINC000937331732    0.6500
12     O12     2.3044   -1.1473    3.8945 O.2      1 ZINC000937331732   -0.5500
13     C13    -0.0001   -0.7297   -1.2707 C.3      1 ZINC000937331732    0.1300
14     H14     0.0286   -1.8058   -1.0995 H        1 ZINC000937331732    0.1200
15     C15    -1.2384   -0.3420   -2.1215 C.3      1 ZINC000937331732   -0.1500
16     C16    -0.7282   -0.6197   -3.5576 C.3      1 ZINC000937331732    0.1000
17     N17     0.6888   -0.2133   -3.5398 N.am     1 ZINC000937331732   -0.6000
18     C18     1.4124    0.1601   -4.6138 C.2      1 ZINC000937331732    0.6200
19     O19     2.5788    0.4770   -4.4808 O.2      1 ZINC000937331732   -0.5400
20     C20     0.7897    0.1845   -5.9498 C.2      1 ZINC000937331732    0.1400
21     N21    -0.4589   -0.1284   -6.2243 N.2      1 ZINC000937331732   -0.4400
22     C22    -0.6651    0.0107   -7.5319 C.2      1 ZINC000937331732   -0.0300
23     C23     0.4914    0.4255   -8.1047 C.2      1 ZINC000937331732   -0.0200
24     N24     1.4082    0.5415   -7.1150 N.pl3    1 ZINC000937331732   -0.5200
25     C25     1.1845   -0.2855   -2.1544 C.3      1 ZINC000937331732    0.1000
26     H26     1.0048    1.8381    0.0023 H        1 ZINC000937331732    0.0700
27     H27    -0.5450    1.8219   -0.8730 H        1 ZINC000937331732    0.0800
28     H28    -0.5280    1.8123    0.9069 H        1 ZINC000937331732    0.0800
29     H29     0.9065    0.7007    2.5274 H        1 ZINC000937331732    0.1300
30     H30    -0.8732    0.6764    2.5442 H        1 ZINC000937331732    0.1300
31     H31    -1.2670   -2.8362    5.8087 H        1 ZINC000937331732    0.2300
32     H32     0.9784   -3.6013    6.7253 H        1 ZINC000937331732    0.1000
33     H33     2.2315   -3.6713    5.4631 H        1 ZINC000937331732    0.0800
34     H34     2.2151   -2.3250    6.6274 H        1 ZINC000937331732    0.0800
35     H35    -2.0918   -0.9759   -1.8806 H        1 ZINC000937331732    0.0900
36     H36    -1.4871    0.7113   -1.9920 H        1 ZINC000937331732    0.0800
37     H37    -0.8158   -1.6804   -3.7928 H        1 ZINC000937331732    0.0800
38     H38    -1.2850   -0.0228   -4.2799 H        1 ZINC000937331732    0.1100
39     H39    -1.5952   -0.1752   -8.0484 H        1 ZINC000937331732    0.1800
40     H40     0.6507    0.6288   -9.1533 H        1 ZINC000937331732    0.1900
41     H41     2.3319    0.8201   -7.2151 H        1 ZINC000937331732    0.4300
42     H42     1.5352    0.6957   -1.8346 H        1 ZINC000937331732    0.0800
43     H43     1.9953   -1.0110   -2.0882 H        1 ZINC000937331732    0.0800
@<TRIPOS>BOND
1     1     2     1
2     1     26    1
3     1     27    1
4     1     28    1
5     2     3     am
6     2     13    1
7     3     4     2
8     3     5     1
9     5     6     1
10    5     29    1
11    5     30    1
12    6     11    am
13    6     7     1
14    7     8     2
15    8     9     1
16    8     31    1
17    9     10    1
18    9     11    am
19    10    32    1
20    10    33    1
21    10    34    1
22    11    12    2
23    13    14    1
24    13    25    1
25    13    15    1
26    15    16    1
27    15    35    1
28    15    36    1
29    16    17    1
30    16    37    1
31    16    38    1
32    17    18    am
33    17    25    1
34    18    19    2
35    18    20    1
36    20    24    1
37    20    21    2
38    21    22    1
39    22    23    2
40    22    39    1
41    23    24    1
42    23    40    1
43    24    41    1
44    25    42    1
45    25    43    1
@<TRIPOS>SUBSTRUCTURE
1   ZINC000937331732 1     RESIDUE    1   A     ZIN   1
@<TRIPOS>MOLECULE
ZINC000928803822
34	34	1	0	0
SMALL
USER_CHARGES
@<TRIPOS>ATOM
1      C1     -0.0178    1.4608    0.0101 C.3      1 ZINC000928803822    0.0900
2      N2      0.0021   -0.0041    0.0020 N.pl3    1 ZINC000928803822   -0.6300
3      C3      0.0241   -0.7433    1.2666 C.3      1 ZINC000928803822    0.0900
4      C4     -0.0000   -0.6960   -1.2117 C.ar     1 ZINC000928803822    0.2200
5      C5      0.0131   -2.0856   -1.2192 C.ar     1 ZINC000928803822   -0.1500
6      C6      0.0111   -2.7752   -2.4184 C.ar     1 ZINC000928803822   -0.0500
7      Br7     0.0284   -4.6661   -2.4183 Br       1 ZINC000928803822   -0.0400
8      C8     -0.0039   -2.0871   -3.6154 C.ar     1 ZINC000928803822   -0.1200
9      C9     -0.0172   -0.6912   -3.6179 C.ar     1 ZINC000928803822   -0.0800
10     C10    -0.0333    0.0481   -4.8983 C.2      1 ZINC000928803822    0.5700
11     O11    -0.0448    1.2636   -4.8983 O.2      1 ZINC000928803822   -0.5100
12     N12    -0.0352   -0.6257   -6.0656 N.am     1 ZINC000928803822   -0.7200
13     C13    -0.0511    0.1067   -7.3342 C.3      1 ZINC000928803822    0.1100
14     H14    -0.6484    1.0118   -7.2237 H        1 ZINC000928803822    0.1400
15     C15    -0.6602   -0.7762   -8.4252 C.3      1 ZINC000928803822   -0.0300
16     C16    -2.0736   -1.0405   -8.1104 C.1      1 ZINC000928803822    0.2000
17     N17    -3.1644   -1.2445   -7.8674 N.1      1 ZINC000928803822   -0.4000
18     C18     1.3796    0.4842   -7.7232 C.3      1 ZINC000928803822    0.4400
19     F19     2.1462   -0.6774   -7.8650 F        1 ZINC000928803822   -0.1800
20     F20     1.3644    1.1837   -8.9347 F        1 ZINC000928803822   -0.1700
21     F21     1.9365    1.2915   -6.7256 F        1 ZINC000928803822   -0.1600
22     C22    -0.0209    0.0038   -2.4088 C.ar     1 ZINC000928803822   -0.1200
23     H23     1.0048    1.8381    0.0023 H        1 ZINC000928803822    0.0600
24     H24    -0.5450    1.8219   -0.8730 H        1 ZINC000928803822    0.0700
25     H25    -0.5280    1.8123    0.9069 H        1 ZINC000928803822    0.0700
26     H26    -0.9979   -0.9406    1.5900 H        1 ZINC000928803822    0.0500
27     H27     0.5496   -1.6879    1.1262 H        1 ZINC000928803822    0.0700
28     H28     0.5371   -0.1514    2.0246 H        1 ZINC000928803822    0.0700
29     H29     0.0253   -2.6289   -0.2859 H        1 ZINC000928803822    0.1400
30     H30    -0.0051   -2.6289   -4.5497 H        1 ZINC000928803822    0.1300
31     H31    -0.0260   -1.5957   -6.0656 H        1 ZINC000928803822    0.4100
32     H32    -0.5912   -0.2661   -9.3861 H        1 ZINC000928803822    0.1400
33     H33    -0.1164   -1.7196   -8.4749 H        1 ZINC000928803822    0.1300
34     H34    -0.0311    1.0837   -2.4048 H        1 ZINC000928803822    0.1500
@<TRIPOS>BOND
1     1     2     1
2     1     23    1
3     1     24    1
4     1     25    1
5     2     3     1
6     2     4     1
7     3     26    1
8     3     27    1
9     3     28    1
10    4     22    ar
11    4     5     ar
12    5     6     ar
13    5     29    1
14    6     7     1
15    6     8     ar
16    8     9     ar
17    8     30    1
18    9     10    1
19    9     22    ar
20    10    11    2
21    10    12    am
22    12    13    1
23    12    31    1
24    13    14    1
25    13    15    1
26    13    18    1
27    15    16    1
28    15    32    1
29    15    33    1
30    16    17    3
31    18    19    1
32    18    20    1
33    18    21    1
34    22    34    1
@<TRIPOS>SUBSTRUCTURE
1   ZINC000928803822 1     RESIDUE    1   A     ZIN   1
@<TRIPOS>MOLECULE
ZINC000185598309
54	54	1	0	0
SMALL
USER_CHARGES
@<TRIPOS>ATOM
1      C1     -0.3813    2.0644   -0.5857 C.3      1 ZINC000185598309   -0.1300
2      C2     -0.3183    0.5677   -0.7499 C.2      1 ZINC000185598309   -0.1600
3      C3     -1.4172   -0.1436   -0.6996 C.2      1 ZINC000185598309   -0.1600
4      C4     -1.3543   -1.6403   -0.8638 C.3      1 ZINC000185598309   -0.0900
5      C5     -2.0216   -2.3136    0.3371 C.3      1 ZINC000185598309    0.1700
6      H6     -1.5583   -1.9574    1.2572 H        1 ZINC000185598309    0.1000
7      C7     -1.8485   -3.8302    0.2327 C.3      1 ZINC000185598309    0.0600
8      O8     -2.3519   -4.2816   -1.0261 O.3      1 ZINC000185598309   -0.5700
9      N9     -3.4492   -1.9849    0.3502 N.am     1 ZINC000185598309   -0.7300
10     C10    -4.1367   -2.0133    1.5091 C.2      1 ZINC000185598309    0.7000
11     O11    -3.5720   -2.3117    2.5437 O.2      1 ZINC000185598309   -0.5900
12     N12    -5.4500   -1.7108    1.5211 N.am     1 ZINC000185598309   -0.7400
13     C13    -6.1972   -1.7417    2.7809 C.3      1 ZINC000185598309    0.1800
14     C14    -7.6338   -1.3668    2.5221 C.ar     1 ZINC000185598309   -0.0900
15     C15    -8.0237   -0.0419    2.5847 C.ar     1 ZINC000185598309   -0.1100
16     C16    -9.3412    0.3062    2.3483 C.ar     1 ZINC000185598309   -0.1000
17     C17   -10.2715   -0.6693    2.0485 C.ar     1 ZINC000185598309   -0.1100
18     C18    -9.8829   -2.0012    1.9845 C.ar     1 ZINC000185598309    0.1400
19     N19   -10.8229   -2.9920    1.6805 N.am     1 ZINC000185598309   -0.6800
20     C20   -11.8407   -2.7201    0.8398 C.2      1 ZINC000185598309    0.5200
21     O21   -11.8892   -1.6491    0.2727 O.2      1 ZINC000185598309   -0.5200
22     C22   -12.9185   -3.7468    0.6046 C.3      1 ZINC000185598309   -0.1100
23     H23   -13.4115   -3.9789    1.5486 H        1 ZINC000185598309    0.1000
24     C24   -12.2938   -5.0194    0.0292 C.3      1 ZINC000185598309   -0.1500
25     C25   -13.9455   -3.1908   -0.3839 C.3      1 ZINC000185598309   -0.1100
26     C26   -15.1031   -4.1809   -0.5274 C.3      1 ZINC000185598309   -0.1600
27     C27    -8.5583   -2.3468    2.2172 C.ar     1 ZINC000185598309   -0.1300
28     H28     0.6238    2.4803   -0.6563 H        1 ZINC000185598309    0.0600
29     H29    -1.0065    2.4900   -1.3706 H        1 ZINC000185598309    0.0600
30     H30    -0.8066    2.3054    0.3885 H        1 ZINC000185598309    0.0600
31     H31     0.6329    0.0814   -0.9090 H        1 ZINC000185598309    0.1100
32     H32    -2.3684    0.3427   -0.5405 H        1 ZINC000185598309    0.1100
33     H33    -1.8749   -1.9278   -1.7773 H        1 ZINC000185598309    0.0900
34     H34    -0.3126   -1.9556   -0.9247 H        1 ZINC000185598309    0.0800
35     H35    -0.7908   -4.0814    0.3123 H        1 ZINC000185598309    0.0500
36     H36    -2.3987   -4.3150    1.0391 H        1 ZINC000185598309    0.0500
37     H37    -2.2744   -5.2360   -1.1614 H        1 ZINC000185598309    0.3800
38     H38    -3.8997   -1.7468   -0.4752 H        1 ZINC000185598309    0.4000
39     H39    -5.9005   -1.4728    0.6957 H        1 ZINC000185598309    0.4000
40     H40    -6.1542   -2.7451    3.2044 H        1 ZINC000185598309    0.0700
41     H41    -5.7572   -1.0323    3.4818 H        1 ZINC000185598309    0.0800
42     H42    -7.2981    0.7229    2.8189 H        1 ZINC000185598309    0.1300
43     H43    -9.6429    1.3420    2.3986 H        1 ZINC000185598309    0.1300
44     H44   -11.3002   -0.3969    1.8644 H        1 ZINC000185598309    0.1300
45     H45   -10.7421   -3.8746    2.0747 H        1 ZINC000185598309    0.4100
46     H46   -11.5621   -5.4155    0.7334 H        1 ZINC000185598309    0.0600
47     H47   -13.0733   -5.7620   -0.1410 H        1 ZINC000185598309    0.0800
48     H48   -11.8008   -4.7873   -0.9148 H        1 ZINC000185598309    0.0600
49     H49   -14.3258   -2.2381   -0.0153 H        1 ZINC000185598309    0.0700
50     H50   -13.4721   -3.0421   -1.3544 H        1 ZINC000185598309    0.0700
51     H51   -14.7228   -5.1336   -0.8960 H        1 ZINC000185598309    0.0600
52     H52   -15.5765   -4.3296    0.4431 H        1 ZINC000185598309    0.0600
53     H53   -15.8347   -3.7848   -1.2317 H        1 ZINC000185598309    0.0600
54     H54    -8.2530   -3.3816    2.1681 H        1 ZINC000185598309    0.1300
@<TRIPOS>BOND
1     1     2     1
2     1     28    1
3     1     29    1
4     1     30    1
5     2     3     2
6     2     31    1
7     3     4     1
8     3     32    1
9     4     5     1
10    4     33    1
11    4     34    1
12    5     6     1
13    5     7     1
14    5     9     1
15    7     8     1
16    7     35    1
17    7     36    1
18    8     37    1
19    9     10    am
20    9     38    1
21    10    11    2
22    10    12    am
23    12    13    1
24    12    39    1
25    13    14    1
26    13    40    1
27    13    41    1
28    14    27    ar
29    14    15    ar
30    15    16    ar
31    15    42    1
32    16    17    ar
33    16    43    1
34    17    18    ar
35    17    44    1
36    18    19    1
37    18    27    ar
38    19    20    am
39    19    45    1
40    20    21    2
41    20    22    1
42    22    23    1
43    22    24    1
44    22    25    1
45    24    46    1
46    24    47    1
47    24    48    1
48    25    26    1
49    25    49    1
50    25    50    1
51    26    51    1
52    26    52    1
53    26    53    1
54    27    54    1
@<TRIPOS>SUBSTRUCTURE
1   ZINC000185598309 1     RESIDUE    1   A     ZIN   1
@<TRIPOS>MOLECULE
ZINC000671418508
52	54	1	0	0
SMALL
USER_CHARGES
@<TRIPOS>ATOM
1      C1     -0.2746    1.7197   -1.0582 C.3      1 ZINC000671418508    0.1000
2      N2     -0.1378    0.2883   -0.7776 N.pl3    1 ZINC000671418508   -0.3700
3      C3     -0.1623   -0.7055   -1.6902 C.2      1 ZINC000671418508    0.0800
4      C4     -0.0040   -1.8759   -1.0298 C.2      1 ZINC000671418508   -0.2700
5      C5      0.0316   -3.2477   -1.6528 C.3      1 ZINC000671418508    0.2000
6      N6      1.4127   -3.5898   -2.0017 N.am     1 ZINC000671418508   -0.6900
7      C7      1.6882   -4.7778   -2.5756 C.2      1 ZINC000671418508    0.5100
8      O8      0.7923   -5.5639   -2.8034 O.2      1 ZINC000671418508   -0.5100
9      C9      3.0971   -5.1268   -2.9315 C.2      1 ZINC000671418508    0.5100
10     O10     4.0065   -4.3972   -2.5950 O.2      1 ZINC000671418508   -0.5200
11     N11     3.3577   -6.2520   -3.6263 N.am     1 ZINC000671418508   -0.5800
12     C12     2.2668   -7.0552   -4.1991 C.3      1 ZINC000671418508    0.0800
13     C13     2.5725   -7.3058   -5.6796 C.3      1 ZINC000671418508    0.0400
14     N14     3.9115   -7.8964   -5.8067 N.3      1 ZINC000671418508   -0.5200
15     C15     4.1750   -8.3103   -7.1913 C.3      1 ZINC000671418508    0.1300
16     H16     4.1118   -7.4428   -7.8482 H        1 ZINC000671418508    0.0600
17     C17     3.1375   -9.3504   -7.6189 C.3      1 ZINC000671418508    0.0900
18     O18     3.2975  -10.5335   -6.8336 O.3      1 ZINC000671418508   -0.5500
19     C19     5.5545   -8.9100   -7.2824 C.ar     1 ZINC000671418508   -0.0800
20     C20     6.0149   -9.7399   -6.2772 C.ar     1 ZINC000671418508   -0.0600
21     C21     7.2801  -10.2902   -6.3602 C.ar     1 ZINC000671418508   -0.1200
22     C22     8.0858  -10.0104   -7.4496 C.ar     1 ZINC000671418508   -0.0300
23     Cl23    9.6747  -10.7016   -7.5548 Cl       1 ZINC000671418508   -0.0700
24     C24     7.6245   -9.1798   -8.4553 C.ar     1 ZINC000671418508   -0.1200
25     C25     6.3570   -8.6346   -8.3739 C.ar     1 ZINC000671418508   -0.1100
26     C26     4.9487   -6.9734   -5.3267 C.3      1 ZINC000671418508    0.0400
27     C27     4.7407   -6.7059   -3.8370 C.3      1 ZINC000671418508    0.1100
28     C28     0.1216   -1.5875    0.3330 C.2      1 ZINC000671418508    0.0700
29     N29     0.0476   -0.2900    0.4847 N.2      1 ZINC000671418508   -0.2900
30     H30     0.7100    2.1495   -1.2427 H        1 ZINC000671418508    0.0800
31     H31    -0.9026    1.8590   -1.9382 H        1 ZINC000671418508    0.0900
32     H32    -0.7329    2.2155   -0.2025 H        1 ZINC000671418508    0.0900
33     H33    -0.2865   -0.5878   -2.7566 H        1 ZINC000671418508    0.1800
34     H34    -0.3558   -3.9790   -0.9434 H        1 ZINC000671418508    0.0800
35     H35    -0.5828   -3.2539   -2.5531 H        1 ZINC000671418508    0.0800
36     H36     2.1289   -2.9615   -1.8196 H        1 ZINC000671418508    0.4100
37     H37     2.1981   -8.0074   -3.6731 H        1 ZINC000671418508    0.0800
38     H38     1.3255   -6.5135   -4.1061 H        1 ZINC000671418508    0.1400
39     H39     1.8321   -7.9907   -6.0929 H        1 ZINC000671418508    0.0900
40     H40     2.5383   -6.3615   -6.2230 H        1 ZINC000671418508    0.0400
41     H41     2.1359   -8.9474   -7.4689 H        1 ZINC000671418508    0.0500
42     H42     3.2780   -9.5919   -8.6725 H        1 ZINC000671418508    0.0500
43     H43     2.6712  -11.2375   -7.0510 H        1 ZINC000671418508    0.3800
44     H44     5.3861   -9.9580   -5.4267 H        1 ZINC000671418508    0.1400
45     H45     7.6398  -10.9382   -5.5747 H        1 ZINC000671418508    0.1300
46     H46     8.2531   -8.9607   -9.3057 H        1 ZINC000671418508    0.1300
47     H47     5.9966   -7.9865   -9.1591 H        1 ZINC000671418508    0.1300
48     H48     5.9317   -7.4173   -5.4842 H        1 ZINC000671418508    0.0900
49     H49     4.8814   -6.0338   -5.8750 H        1 ZINC000671418508    0.0400
50     H50     5.4356   -5.9354   -3.5028 H        1 ZINC000671418508    0.1000
51     H51     4.9085   -7.6236   -3.2732 H        1 ZINC000671418508    0.0800
52     H52     0.2607   -2.3105    1.1231 H        1 ZINC000671418508    0.1900
@<TRIPOS>BOND
1     1     2     1
2     1     30    1
3     1     31    1
4     1     32    1
5     2     29    1
6     2     3     1
7     3     4     2
8     3     33    1
9     4     5     1
10    4     28    1
11    5     6     1
12    5     34    1
13    5     35    1
14    6     7     am
15    6     36    1
16    7     8     2
17    7     9     1
18    9     10    2
19    9     11    am
20    11    27    1
21    11    12    1
22    12    13    1
23    12    37    1
24    12    38    1
25    13    14    1
26    13    39    1
27    13    40    1
28    14    15    1
29    14    26    1
30    15    16    1
31    15    17    1
32    15    19    1
33    17    18    1
34    17    41    1
35    17    42    1
36    18    43    1
37    19    25    ar
38    19    20    ar
39    20    21    ar
40    20    44    1
41    21    22    ar
42    21    45    1
43    22    23    1
44    22    24    ar
45    24    25    ar
46    24    46    1
47    25    47    1
48    26    27    1
49    26    48    1
50    26    49    1
51    27    50    1
52    27    51    1
53    28    29    2
54    28    52    1
@<TRIPOS>SUBSTRUCTURE
1   ZINC000671418508 1     RESIDUE    1   A     ZIN   1
@<TRIPOS>MOLECULE
ZINC000058043838
49	51	1	0	0
SMALL
USER_CHARGES
@<TRIPOS>ATOM
1      C1     -0.0173    1.4248    0.0099 C.3      1 ZINC000058043838    0.0300
2      O2      0.0021   -0.0041    0.0020 O.3      1 ZINC000058043838   -0.3800
3      C3      0.6518   -0.5703   -1.1379 C.3      1 ZINC000058043838    0.0300
4      C4      0.6131   -2.0967   -1.0411 C.3      1 ZINC000058043838    0.1000
5      N5     -0.7759   -2.5559   -1.1188 N.am     1 ZINC000058043838   -0.5200
6      C6     -1.3247   -2.8430   -2.3158 C.2      1 ZINC000058043838    0.5100
7      O7     -2.4746   -3.2232   -2.3802 O.2      1 ZINC000058043838   -0.4500
8      C8     -0.5095   -2.6918   -3.5743 C.3      1 ZINC000058043838   -0.0900
9      C9     -1.3496   -3.0732   -4.7658 C.ar     1 ZINC000058043838   -0.1400
10     C10    -1.3767   -4.3846   -5.2146 C.ar     1 ZINC000058043838   -0.0500
11     C11    -2.1643   -4.6896   -6.3145 C.ar     1 ZINC000058043838   -0.1700
12     C12    -2.8909   -3.6835   -6.9222 C.ar     1 ZINC000058043838    0.1300
13     C13    -3.7506   -4.0036   -8.1178 C.3      1 ZINC000058043838   -0.1100
14     N14    -2.8410   -2.4464   -6.4678 N.ar     1 ZINC000058043838   -0.4800
15     C15    -2.1073   -2.1211   -5.4216 C.ar     1 ZINC000058043838    0.1200
16     C16    -1.5275   -2.6954    0.0415 C.2      1 ZINC000058043838    0.3100
17     N17    -2.7592   -3.0971    0.0927 N.2      1 ZINC000058043838   -0.4700
18     C18    -3.3191   -3.1705    1.2921 C.2      1 ZINC000058043838    0.1100
19     C19    -4.7205   -3.6154    1.4869 C.ar     1 ZINC000058043838    0.0400
20     C20    -5.4642   -4.0793    0.4031 C.ar     1 ZINC000058043838   -0.0800
21     C21    -6.7676   -4.4924    0.5904 C.ar     1 ZINC000058043838   -0.0500
22     C22    -7.3361   -4.4468    1.8507 C.ar     1 ZINC000058043838   -0.0400
23     N23    -8.7347   -4.8914    2.0452 N.pl3    1 ZINC000058043838    0.0300
24     O24    -9.3825   -5.2963    1.0967 O.2      1 ZINC000058043838   -0.1600
25     O25    -9.2375   -4.8522    3.1539 O.2      1 ZINC000058043838   -0.1600
26     C26    -6.6026   -3.9878    2.9300 C.ar     1 ZINC000058043838   -0.0500
27     C27    -5.2968   -3.5766    2.7554 C.ar     1 ZINC000058043838   -0.1100
28     C28    -2.5284   -2.8139    2.3202 C.2      1 ZINC000058043838   -0.2600
29     S29    -0.9533   -2.3613    1.6725 S.3      1 ZINC000058043838    0.1500
30     H30     1.0053    1.8021    0.0021 H        1 ZINC000058043838    0.0500
31     H31    -0.5445    1.7859   -0.8732 H        1 ZINC000058043838    0.0400
32     H32    -0.5275    1.7763    0.9067 H        1 ZINC000058043838    0.0900
33     H33     0.1385   -0.2506   -2.0447 H        1 ZINC000058043838    0.0600
34     H34     1.6883   -0.2344   -1.1694 H        1 ZINC000058043838    0.0800
35     H35     1.1847   -2.5275   -1.8631 H        1 ZINC000058043838    0.1200
36     H36     1.0473   -2.4117   -0.0922 H        1 ZINC000058043838    0.1000
37     H37    -0.1854   -1.6560   -3.6749 H        1 ZINC000058043838    0.1100
38     H38     0.3635   -3.3423   -3.5220 H        1 ZINC000058043838    0.1100
39     H39    -0.7979   -5.1503   -4.7197 H        1 ZINC000058043838    0.1300
40     H40    -2.2091   -5.7007   -6.6915 H        1 ZINC000058043838    0.1400
41     H41    -4.7512   -4.2773   -7.7830 H        1 ZINC000058043838    0.0800
42     H42    -3.8109   -3.1297   -8.7664 H        1 ZINC000058043838    0.0800
43     H43    -3.3116   -4.8354   -8.6687 H        1 ZINC000058043838    0.0800
44     H44    -2.0915   -1.0972   -5.0783 H        1 ZINC000058043838    0.1500
45     H45    -5.0215   -4.1150   -0.5813 H        1 ZINC000058043838    0.1600
46     H46    -7.3449   -4.8517   -0.2486 H        1 ZINC000058043838    0.1600
47     H47    -7.0515   -3.9543    3.9117 H        1 ZINC000058043838    0.1600
48     H48    -4.7249   -3.2188    3.5988 H        1 ZINC000058043838    0.1500
49     H49    -2.8093   -2.8094    3.3630 H        1 ZINC000058043838    0.1800
@<TRIPOS>BOND
1     1     2     1
2     1     30    1
3     1     31    1
4     1     32    1
5     2     3     1
6     3     4     1
7     3     33    1
8     3     34    1
9     4     5     1
10    4     35    1
11    4     36    1
12    5     6     am
13    5     16    1
14    6     7     2
15    6     8     1
16    8     9     1
17    8     37    1
18    8     38    1
19    9     15    ar
20    9     10    ar
21    10    11    ar
22    10    39    1
23    11    12    ar
24    11    40    1
25    12    13    1
26    12    14    ar
27    13    41    1
28    13    42    1
29    13    43    1
30    14    15    ar
31    15    44    1
32    16    29    1
33    16    17    2
34    17    18    1
35    18    19    1
36    18    28    2
37    19    27    ar
38    19    20    ar
39    20    21    ar
40    20    45    1
41    21    22    ar
42    21    46    1
43    22    23    1
44    22    26    ar
45    23    24    2
46    23    25    2
47    26    27    ar
48    26    47    1
49    27    48    1
50    28    29    1
51    28    49    1
@<TRIPOS>SUBSTRUCTURE
1   ZINC000058043838 1     RESIDUE    1   A     ZIN   1
@<TRIPOS>MOLECULE
ZINC000171059239
44	46	1	0	0
SMALL
USER_CHARGES
@<TRIPOS>ATOM
1      N1      0.0352    1.3358   -0.0096 N.am     1 ZINC000171059239   -0.8500
2      C2      0.0486   -0.0118   -0.0165 C.2      1 ZINC000171059239    0.5600
3      O3      1.1071   -0.6090   -0.0363 O.2      1 ZINC000171059239   -0.5400
4      C4     -1.2243   -0.7638   -0.0002 C.ar     1 ZINC000171059239   -0.1400
5      C5     -2.4414   -0.0812    0.0167 C.ar     1 ZINC000171059239   -0.0900
6      C6     -3.6257   -0.7890    0.0314 C.ar     1 ZINC000171059239   -0.1200
7      C7     -3.6083   -2.1723    0.0300 C.ar     1 ZINC000171059239   -0.0800
8      C8     -2.4049   -2.8553    0.0138 C.ar     1 ZINC000171059239   -0.0900
9      C9     -2.3956   -4.3622    0.0128 C.3      1 ZINC000171059239   -0.0900
10     C10    -2.4115   -4.8714   -1.4299 C.3      1 ZINC000171059239    0.1400
11     N11    -2.4025   -6.3364   -1.4308 N.am     1 ZINC000171059239   -0.7400
12     C12    -2.4137   -7.0096   -2.5983 C.2      1 ZINC000171059239    0.7000
13     O13    -2.4313   -6.4011   -3.6508 O.2      1 ZINC000171059239   -0.5700
14     N14    -2.4054   -8.3574   -2.5992 N.am     1 ZINC000171059239   -0.6800
15     C15    -2.5122   -9.0554   -3.8037 C.ar     1 ZINC000171059239    0.1700
16     C16    -3.2120  -10.2795   -3.8574 C.ar     1 ZINC000171059239   -0.0600
17     C17    -3.8146  -10.8247   -2.7129 C.ar     1 ZINC000171059239   -0.1100
18     C18    -4.4823  -12.0080   -2.8015 C.ar     1 ZINC000171059239   -0.1100
19     C19    -4.5770  -12.6886   -4.0138 C.ar     1 ZINC000171059239   -0.1200
20     C20    -4.0051  -12.1899   -5.1437 C.ar     1 ZINC000171059239   -0.1000
21     C21    -3.3080  -10.9704   -5.0906 C.ar     1 ZINC000171059239   -0.0400
22     C22    -2.7057  -10.4255   -6.2372 C.ar     1 ZINC000171059239   -0.1200
23     C23    -2.0369   -9.2422   -6.1567 C.ar     1 ZINC000171059239   -0.0900
24     C24    -1.9400   -8.5522   -4.9521 C.ar     1 ZINC000171059239   -0.1200
25     C25    -1.2139   -2.1597   -0.0074 C.ar     1 ZINC000171059239   -0.0500
26     H26     0.8703    1.8292   -0.0203 H        1 ZINC000171059239    0.4100
27     H27    -0.8096    1.8124    0.0022 H        1 ZINC000171059239    0.4000
28     H28    -2.4562    0.9987    0.0186 H        1 ZINC000171059239    0.1300
29     H29    -4.5683   -0.2620    0.0445 H        1 ZINC000171059239    0.1300
30     H30    -4.5381   -2.7216    0.0419 H        1 ZINC000171059239    0.1300
31     H31    -1.4967   -4.7204    0.5147 H        1 ZINC000171059239    0.0800
32     H32    -3.2765   -4.7313    0.5381 H        1 ZINC000171059239    0.0800
33     H33    -3.3104   -4.5133   -1.9317 H        1 ZINC000171059239    0.0700
34     H34    -1.5306   -4.5023   -1.9551 H        1 ZINC000171059239    0.0700
35     H35    -2.3884   -6.8219   -0.5911 H        1 ZINC000171059239    0.4000
36     H36    -2.3252   -8.8424   -1.7630 H        1 ZINC000171059239    0.4100
37     H37    -3.7486  -10.3084   -1.7666 H        1 ZINC000171059239    0.1200
38     H38    -4.9451  -12.4252   -1.9194 H        1 ZINC000171059239    0.1200
39     H39    -5.1117  -13.6259   -4.0573 H        1 ZINC000171059239    0.1200
40     H40    -4.0862  -12.7286   -6.0763 H        1 ZINC000171059239    0.1300
41     H41    -2.7729  -10.9451   -7.1816 H        1 ZINC000171059239    0.1300
42     H42    -1.5770   -8.8307   -7.0430 H        1 ZINC000171059239    0.1300
43     H43    -1.4041   -7.6153   -4.9151 H        1 ZINC000171059239    0.1400
44     H44    -0.2754   -2.6939   -0.0203 H        1 ZINC000171059239    0.1400
@<TRIPOS>BOND
1     1     2     am
2     1     26    1
3     1     27    1
4     2     3     2
5     2     4     1
6     4     25    ar
7     4     5     ar
8     5     6     ar
9     5     28    1
10    6     7     ar
11    6     29    1
12    7     8     ar
13    7     30    1
14    8     9     1
15    8     25    ar
16    9     10    1
17    9     31    1
18    9     32    1
19    10    11    1
20    10    33    1
21    10    34    1
22    11    12    am
23    11    35    1
24    12    13    2
25    12    14    am
26    14    15    1
27    14    36    1
28    15    24    ar
29    15    16    ar
30    16    21    ar
31    16    17    ar
32    17    18    ar
33    17    37    1
34    18    19    ar
35    18    38    1
36    19    20    ar
37    19    39    1
38    20    21    ar
39    20    40    1
40    21    22    ar
41    22    23    ar
42    22    41    1
43    23    24    ar
44    23    42    1
45    24    43    1
46    25    44    1
@<TRIPOS>SUBSTRUCTURE
1   ZINC000171059239 1     RESIDUE    1   A     ZIN   1
@<TRIPOS>MOLECULE
ZINC001011267435
53	54	1	0	0
SMALL
USER_CHARGES
@<TRIPOS>ATOM
1      C1     -1.5783    0.2240    1.5745 C.3      1 ZINC001011267435   -0.1500
2      C2     -0.8890   -1.0526    1.0887 C.3      1 ZINC001011267435   -0.1200
3      C3     -0.5935   -0.9348   -0.4078 C.3      1 ZINC001011267435   -0.0700
4      C4      0.0855   -2.1922   -0.8863 C.ar     1 ZINC001011267435    0.1300
5      C5     -0.4507   -2.8940   -1.9483 C.ar     1 ZINC001011267435   -0.1200
6      C6      0.1887   -4.0593   -2.3829 C.ar     1 ZINC001011267435   -0.0800
7      C7     -0.3491   -4.8446   -3.5181 C.2      1 ZINC001011267435    0.5600
8      O8     -0.9189   -4.2806   -4.4313 O.2      1 ZINC001011267435   -0.5200
9      N9     -0.2064   -6.1847   -3.5381 N.am     1 ZINC001011267435   -0.6100
10     C10     0.3665   -6.8931   -2.3850 C.3      1 ZINC001011267435    0.0700
11     C11    -0.6236   -7.9734   -1.9322 C.3      1 ZINC001011267435    0.1000
12     N12    -1.0385   -8.7524   -3.1073 N.am     1 ZINC001011267435   -0.6200
13     C13    -0.8966  -10.0925   -3.1270 C.2      1 ZINC001011267435    0.5300
14     O14    -0.5108  -10.6760   -2.1362 O.2      1 ZINC001011267435   -0.5300
15     C15    -1.2174  -10.8659   -4.3799 C.3      1 ZINC001011267435   -0.1100
16     H16    -1.0952  -10.2182   -5.2480 H        1 ZINC001011267435    0.0900
17     C17    -2.6623  -11.3650   -4.3154 C.3      1 ZINC001011267435   -0.1500
18     C18    -0.2698  -12.0613   -4.4981 C.3      1 ZINC001011267435   -0.0800
19     C19    -0.5954  -12.8465   -5.7702 C.3      1 ZINC001011267435   -0.1500
20     C20     1.1751  -11.5622   -4.5627 C.3      1 ZINC001011267435   -0.1500
21     C21    -1.6114   -8.0439   -4.2605 C.3      1 ZINC001011267435    0.0900
22     C22    -0.6265   -6.9642   -4.7110 C.3      1 ZINC001011267435    0.1000
23     C23     1.3498   -4.4622   -1.7167 C.ar     1 ZINC001011267435   -0.1600
24     C24     1.8166   -3.6996   -0.6633 C.ar     1 ZINC001011267435    0.1100
25     N25     1.1860   -2.6045   -0.2891 N.ar     1 ZINC001011267435   -0.4600
26     H26    -0.9251    1.0788    1.3993 H        1 ZINC001011267435    0.0600
27     H27    -2.5121    0.3625    1.0296 H        1 ZINC001011267435    0.0500
28     H28    -1.7888    0.1400    2.6407 H        1 ZINC001011267435    0.0600
29     H29     0.0448   -1.1912    1.6336 H        1 ZINC001011267435    0.0700
30     H30    -1.5422   -1.9075    1.2639 H        1 ZINC001011267435    0.0600
31     H31    -1.5273   -0.7962   -0.9527 H        1 ZINC001011267435    0.0800
32     H32     0.0597   -0.0800   -0.5830 H        1 ZINC001011267435    0.0900
33     H33    -1.3504   -2.5482   -2.4355 H        1 ZINC001011267435    0.1400
34     H34     1.3092   -7.3585   -2.6729 H        1 ZINC001011267435    0.0800
35     H35     0.5370   -6.1888   -1.5708 H        1 ZINC001011267435    0.1100
36     H36    -0.1418   -8.6312   -1.2088 H        1 ZINC001011267435    0.1100
37     H37    -1.4960   -7.5031   -1.4785 H        1 ZINC001011267435    0.0700
38     H38    -2.8687  -11.9934   -5.1817 H        1 ZINC001011267435    0.0800
39     H39    -2.8061  -11.9446   -3.4035 H        1 ZINC001011267435    0.0600
40     H40    -3.3415  -10.5125   -4.3148 H        1 ZINC001011267435    0.0600
41     H41    -0.3920  -12.7090   -3.6300 H        1 ZINC001011267435    0.0800
42     H42     0.0797  -13.6981   -5.8544 H        1 ZINC001011267435    0.0600
43     H43    -1.6248  -13.2020   -5.7242 H        1 ZINC001011267435    0.0600
44     H44    -0.4732  -12.1987   -6.6383 H        1 ZINC001011267435    0.0600
45     H45     1.4071  -11.0028   -3.6564 H        1 ZINC001011267435    0.0600
46     H46     1.8502  -12.4138   -4.6469 H        1 ZINC001011267435    0.0600
47     H47     1.2973  -10.9144   -5.4308 H        1 ZINC001011267435    0.0500
48     H48    -1.7819   -8.7482   -5.0747 H        1 ZINC001011267435    0.1000
49     H49    -2.5541   -7.5786   -3.9725 H        1 ZINC001011267435    0.0800
50     H50    -1.1095   -6.3073   -5.4344 H        1 ZINC001011267435    0.1100
51     H51     0.2472   -7.4323   -5.1646 H        1 ZINC001011267435    0.0800
52     H52     1.8738   -5.3564   -2.0206 H        1 ZINC001011267435    0.1500
53     H53     2.7126   -4.0029   -0.1421 H        1 ZINC001011267435    0.1700
@<TRIPOS>BOND
1     1     2     1
2     1     26    1
3     1     27    1
4     1     28    1
5     2     3     1
6     2     29    1
7     2     30    1
8     3     4     1
9     3     31    1
10    3     32    1
11    4     25    ar
12    4     5     ar
13    5     6     ar
14    5     33    1
15    6     7     1
16    6     23    ar
17    7     8     2
18    7     9     am
19    9     22    1
20    9     10    1
21    10    11    1
22    10    34    1
23    10    35    1
24    11    12    1
25    11    36    1
26    11    37    1
27    12    13    am
28    12    21    1
29    13    14    2
30    13    15    1
31    15    16    1
32    15    17    1
33    15    18    1
34    17    38    1
35    17    39    1
36    17    40    1
37    18    19    1
38    18    20    1
39    18    41    1
40    19    42    1
41    19    43    1
42    19    44    1
43    20    45    1
44    20    46    1
45    20    47    1
46    21    22    1
47    21    48    1
48    21    49    1
49    22    50    1
50    22    51    1
51    23    24    ar
52    23    52    1
53    24    25    ar
54    24    53    1
@<TRIPOS>SUBSTRUCTURE
1   ZINC001011267435 1     RESIDUE    1   A     ZIN   1
@<TRIPOS>MOLECULE
ZINC001105793963
51	52	1	0	0
SMALL
USER_CHARGES
@<TRIPOS>ATOM
1      C1     -0.0187    1.5258    0.0104 C.3      1 ZINC001105793963   -0.1500
2      C2      0.0021   -0.0041    0.0020 C.3      1 ZINC001105793963   -0.0300
3      C3      0.7074   -0.4901   -1.2379 C.2      1 ZINC001105793963    0.1800
4      N4      1.9893   -0.7373   -1.3608 N.2      1 ZINC001105793963   -0.4800
5      C5      2.1592   -1.1445   -2.6314 C.2      1 ZINC001105793963    0.1700
6      C6      3.4619   -1.5500   -3.2714 C.3      1 ZINC001105793963    0.1500
7      N7      3.6694   -2.9927   -3.0880 N.3      1 ZINC001105793963   -0.6900
8      C8      4.9327   -3.4249   -3.7006 C.3      1 ZINC001105793963    0.0700
9      C9      5.1134   -4.9294   -3.4895 C.3      1 ZINC001105793963   -0.1000
10     H10     4.2420   -5.4704   -3.8585 H        1 ZINC001105793963    0.1000
11     C11     5.3432   -5.2379   -1.9943 C.3      1 ZINC001105793963    0.1100
12     N12     6.3356   -6.3378   -1.9877 N.am     1 ZINC001105793963   -0.6200
13     C13     6.3689   -7.4164   -1.1803 C.2      1 ZINC001105793963    0.5300
14     O14     5.5132   -7.5672   -0.3342 O.2      1 ZINC001105793963   -0.5300
15     C15     7.4695   -8.4351   -1.3289 C.3      1 ZINC001105793963    0.1300
16     H16     7.4396   -8.8585   -2.3328 H        1 ZINC001105793963    0.1100
17     C17     8.8234   -7.7602   -1.1001 C.3      1 ZINC001105793963   -0.1600
18     N18     7.2832   -9.5026   -0.3430 N.am     1 ZINC001105793963   -0.7200
19     C19     7.7889  -10.7301   -0.5751 C.2      1 ZINC001105793963    0.5200
20     C20     7.5973  -11.8282    0.4390 C.3      1 ZINC001105793963   -0.1700
21     O21     8.3982  -10.9510   -1.6002 O.2      1 ZINC001105793963   -0.5500
22     C22     7.2831   -5.9831   -3.0700 C.3      1 ZINC001105793963    0.1000
23     C23     6.3909   -5.4213   -4.2011 C.3      1 ZINC001105793963   -0.1000
24     H24     6.8900   -4.5907   -4.7002 H        1 ZINC001105793963    0.0900
25     C25     6.0544   -6.5218   -5.2094 C.3      1 ZINC001105793963   -0.1500
26     N26     0.9937   -1.1245   -3.2056 N.2      1 ZINC001105793963   -0.3700
27     O27     0.1452   -0.7570   -2.4205 O.3      1 ZINC001105793963    0.0800
28     H28     1.0039    1.9031    0.0027 H        1 ZINC001105793963    0.0600
29     H29    -0.5459    1.8868   -0.8726 H        1 ZINC001105793963    0.0600
30     H30    -0.5289    1.8773    0.9072 H        1 ZINC001105793963    0.0800
31     H31     0.5293   -0.3651    0.8851 H        1 ZINC001105793963    0.1100
32     H32    -1.0205   -0.3814    0.0098 H        1 ZINC001105793963    0.1000
33     H33     3.4307   -1.3198   -4.3363 H        1 ZINC001105793963    0.1000
34     H34     4.2815   -1.0029   -2.8053 H        1 ZINC001105793963    0.0700
35     H35     3.6379   -3.2412   -2.1106 H        1 ZINC001105793963    0.3500
36     H36     4.9117   -3.2077   -4.7685 H        1 ZINC001105793963    0.0800
37     H37     5.7625   -2.8908   -3.2375 H        1 ZINC001105793963    0.0400
38     H38     5.7428   -4.3623   -1.4827 H        1 ZINC001105793963    0.0700
39     H39     4.4138   -5.5617   -1.5258 H        1 ZINC001105793963    0.0900
40     H40     9.6195   -8.4970   -1.2075 H        1 ZINC001105793963    0.0800
41     H41     8.9620   -6.9659   -1.8336 H        1 ZINC001105793963    0.0800
42     H42     8.8533   -7.3368   -0.0961 H        1 ZINC001105793963    0.0600
43     H43     6.7959   -9.3259    0.4769 H        1 ZINC001105793963    0.4100
44     H44     7.0304  -11.4445    1.2873 H        1 ZINC001105793963    0.0800
45     H45     7.0525  -12.6541   -0.0183 H        1 ZINC001105793963    0.1000
46     H46     8.5703  -12.1801    0.7817 H        1 ZINC001105793963    0.1000
47     H47     7.9857   -5.2239   -2.7263 H        1 ZINC001105793963    0.0800
48     H48     7.8172   -6.8691   -3.4130 H        1 ZINC001105793963    0.0900
49     H49     5.5450   -7.3390   -4.6987 H        1 ZINC001105793963    0.0600
50     H50     5.4048   -6.1172   -5.9855 H        1 ZINC001105793963    0.0600
51     H51     6.9737   -6.8932   -5.6621 H        1 ZINC001105793963    0.0600
@<TRIPOS>BOND
1     1     2     1
2     1     28    1
3     1     29    1
4     1     30    1
5     2     3     1
6     2     31    1
7     2     32    1
8     3     27    1
9     3     4     2
10    4     5     1
11    5     6     1
12    5     26    2
13    6     7     1
14    6     33    1
15    6     34    1
16    7     8     1
17    7     35    1
18    8     9     1
19    8     36    1
20    8     37    1
21    9     10    1
22    9     23    1
23    9     11    1
24    11    12    1
25    11    38    1
26    11    39    1
27    12    13    am
28    12    22    1
29    13    14    2
30    13    15    1
31    15    16    1
32    15    17    1
33    15    18    1
34    17    40    1
35    17    41    1
36    17    42    1
37    18    19    am
38    18    43    1
39    19    20    1
40    19    21    2
41    20    44    1
42    20    45    1
43    20    46    1
44    22    23    1
45    22    47    1
46    22    48    1
47    23    24    1
48    23    25    1
49    25    49    1
50    25    50    1
51    25    51    1
52    26    27    1
@<TRIPOS>SUBSTRUCTURE
1   ZINC001105793963 1     RESIDUE    1   A     ZIN   1
@<TRIPOS>MOLECULE
ZINC000182378855
47	49	1	0	0
SMALL
USER_CHARGES
@<TRIPOS>ATOM
1      C1     -0.1136    1.1523   -2.3859 C.3      1 ZINC000182378855    0.0300
2      O2     -0.7038    1.5592   -1.1497 O.3      1 ZINC000182378855   -0.3900
3      C3     -0.0127    1.0858    0.0080 C.3      1 ZINC000182378855    0.0600
4      C4     -0.7288    1.5792    1.2668 C.3      1 ZINC000182378855    0.0700
5      O5     -2.0295    0.9914    1.3363 O.3      1 ZINC000182378855   -0.2900
6      C6     -2.8013    1.3273    2.4005 C.ar     1 ZINC000182378855    0.3300
7      C7     -4.0748    0.7877    2.5222 C.ar     1 ZINC000182378855   -0.1300
8      C8     -4.8569    1.1430    3.6228 C.ar     1 ZINC000182378855   -0.0600
9      C9     -6.2216    0.5925    3.7957 C.2      1 ZINC000182378855    0.5600
10     O10    -6.6741   -0.1792    2.9734 O.2      1 ZINC000182378855   -0.5200
11     N11    -6.9610    0.9477    4.8650 N.am     1 ZINC000182378855   -0.7100
12     C12    -8.3104    0.4034    5.0360 C.3      1 ZINC000182378855    0.1200
13     H13    -8.3509   -0.6298    4.6912 H        1 ZINC000182378855    0.1100
14     C14    -9.3429    1.2679    4.2783 C.3      1 ZINC000182378855   -0.1700
15     C15   -10.2847    1.7862    5.3877 C.3      1 ZINC000182378855    0.0400
16     O16    -9.4943    1.7371    6.5955 O.3      1 ZINC000182378855   -0.3600
17     C17    -8.7505    0.5018    6.5135 C.3      1 ZINC000182378855    0.1100
18     H18    -9.3873   -0.3428    6.7767 H        1 ZINC000182378855    0.1000
19     C19    -7.5458    0.5538    7.4174 C.ar     1 ZINC000182378855   -0.0500
20     C20    -6.9211    1.7613    7.6667 C.ar     1 ZINC000182378855   -0.1100
21     C21    -5.8191    1.8118    8.5002 C.ar     1 ZINC000182378855   -0.0800
22     C22    -5.3340    0.6522    9.0765 C.ar     1 ZINC000182378855   -0.0700
23     Cl23   -3.9465    0.7144   10.1179 Cl       1 ZINC000182378855   -0.0400
24     C24    -5.9566   -0.5596    8.8224 C.ar     1 ZINC000182378855    0.1200
25     F25    -5.4843   -1.6935    9.3849 F        1 ZINC000182378855   -0.1200
26     C26    -7.0630   -0.6071    7.9922 C.ar     1 ZINC000182378855   -0.1300
27     C27    -4.3172    2.0326    4.5584 C.ar     1 ZINC000182378855   -0.1900
28     C28    -3.0421    2.5228    4.3616 C.ar     1 ZINC000182378855    0.1400
29     N29    -2.3301    2.1605    3.3123 N.ar     1 ZINC000182378855   -0.5200
30     H30    -0.1009    0.0638   -2.4415 H        1 ZINC000182378855    0.0400
31     H31    -0.6966    1.5518   -3.2157 H        1 ZINC000182378855    0.0900
32     H32     0.9069    1.5310   -2.4433 H        1 ZINC000182378855    0.0400
33     H33     0.0021   -0.0041    0.0020 H        1 ZINC000182378855    0.0600
34     H34     1.0099    1.4631    0.0003 H        1 ZINC000182378855    0.0700
35     H35    -0.1536    1.2938    2.1476 H        1 ZINC000182378855    0.0800
36     H36    -0.8222    2.6646    1.2299 H        1 ZINC000182378855    0.0800
37     H37    -4.4545    0.1042    1.7772 H        1 ZINC000182378855    0.1600
38     H38    -6.5998    1.5638    5.5214 H        1 ZINC000182378855    0.4000
39     H39    -8.8493    2.1002    3.7766 H        1 ZINC000182378855    0.0900
40     H40    -9.8955    0.6615    3.5607 H        1 ZINC000182378855    0.0900
41     H41   -10.5918    2.8105    5.1767 H        1 ZINC000182378855    0.1000
42     H42   -11.1577    1.1398    5.4770 H        1 ZINC000182378855    0.0700
43     H43    -7.2965    2.6667    7.2131 H        1 ZINC000182378855    0.1500
44     H44    -5.3345    2.7565    8.6977 H        1 ZINC000182378855    0.1500
45     H45    -7.5493   -1.5508    7.7937 H        1 ZINC000182378855    0.1500
46     H46    -4.8908    2.3314    5.4233 H        1 ZINC000182378855    0.1400
47     H47    -2.6195    3.2097    5.0799 H        1 ZINC000182378855    0.1700
@<TRIPOS>BOND
1     1     2     1
2     1     30    1
3     1     31    1
4     1     32    1
5     2     3     1
6     3     4     1
7     3     33    1
8     3     34    1
9     4     5     1
10    4     35    1
11    4     36    1
12    5     6     1
13    6     29    ar
14    6     7     ar
15    7     8     ar
16    7     37    1
17    8     9     1
18    8     27    ar
19    9     10    2
20    9     11    am
21    11    12    1
22    11    38    1
23    12    13    1
24    12    17    1
25    12    14    1
26    14    15    1
27    14    39    1
28    14    40    1
29    15    16    1
30    15    41    1
31    15    42    1
32    16    17    1
33    17    18    1
34    17    19    1
35    19    26    ar
36    19    20    ar
37    20    21    ar
38    20    43    1
39    21    22    ar
40    21    44    1
41    22    23    1
42    22    24    ar
43    24    25    1
44    24    26    ar
45    26    45    1
46    27    28    ar
47    27    46    1
48    28    29    ar
49    28    47    1
@<TRIPOS>SUBSTRUCTURE
1   ZINC000182378855 1     RESIDUE    1   A     ZIN   1
@<TRIPOS>MOLECULE
ZINC000437192871
48	50	1	0	0
SMALL
USER_CHARGES
@<TRIPOS>ATOM
1      C1     -0.7987    1.7965   -0.8894 C.3      1 ZINC000437192871   -0.1700
2      C2     -0.6221    0.3037   -0.6040 C.3      1 ZINC000437192871    0.1300
3      N3     -1.9353   -0.3446   -0.5643 N.pl3    1 ZINC000437192871   -0.3600
4      C4     -2.3170   -1.4104   -1.2987 C.2      1 ZINC000437192871    0.0700
5      C5     -3.5970   -1.7009   -0.9698 C.2      1 ZINC000437192871   -0.2700
6      C6     -4.4284   -2.8185   -1.5448 C.3      1 ZINC000437192871    0.1900
7      N7     -4.2500   -4.0263   -0.7350 N.am     1 ZINC000437192871   -0.6000
8      C8     -5.1357   -4.2823    0.4035 C.3      1 ZINC000437192871    0.1100
9      C9     -6.4103   -4.9721   -0.0870 C.3      1 ZINC000437192871    0.0600
10     O10    -6.0869   -6.2713   -0.5864 O.3      1 ZINC000437192871   -0.5600
11     C11    -3.2711   -4.9019   -1.0375 C.2      1 ZINC000437192871    0.6000
12     O12    -3.1659   -5.9376   -0.4087 O.2      1 ZINC000437192871   -0.5000
13     C13    -2.3286   -4.6044   -2.1294 C.2      1 ZINC000437192871   -0.2200
14     C14    -1.0764   -4.0491   -2.0514 C.2      1 ZINC000437192871    0.0100
15     C15    -0.3635   -3.6063   -0.7996 C.3      1 ZINC000437192871   -0.0800
16     O16    -0.6129   -3.9783   -3.3013 O.3      1 ZINC000437192871    0.1100
17     N17    -1.3865   -4.4032   -4.1239 N.2      1 ZINC000437192871   -0.3200
18     C18    -2.4953   -4.8364   -3.5796 C.2      1 ZINC000437192871    0.0800
19     C19    -3.6686   -5.4244   -4.2696 C.ar     1 ZINC000437192871   -0.0200
20     C20    -4.7797   -5.8333   -3.5344 C.ar     1 ZINC000437192871   -0.0700
21     C21    -5.8694   -6.3794   -4.1812 C.ar     1 ZINC000437192871   -0.1000
22     C22    -5.8610   -6.5218   -5.5584 C.ar     1 ZINC000437192871   -0.0100
23     Cl23   -7.2359   -7.2093   -6.3652 Cl       1 ZINC000437192871   -0.0500
24     C24    -4.7604   -6.1176   -6.2944 C.ar     1 ZINC000437192871   -0.1100
25     C25    -3.6667   -5.5649   -5.6578 C.ar     1 ZINC000437192871    0.0000
26     Cl26   -2.2871   -5.0577   -6.5814 Cl       1 ZINC000437192871   -0.0300
27     C27    -4.0118   -0.7810   -0.0012 C.2      1 ZINC000437192871    0.0600
28     N28    -3.0145    0.0288    0.2470 N.2      1 ZINC000437192871   -0.2900
29     H29     0.1783    2.2788   -0.9189 H        1 ZINC000437192871    0.0800
30     H30    -1.2972    1.9263   -1.8500 H        1 ZINC000437192871    0.0600
31     H31    -1.4031    2.2478   -0.1025 H        1 ZINC000437192871    0.0700
32     H32    -0.0177   -0.1476   -1.3909 H        1 ZINC000437192871    0.1000
33     H33    -0.1237    0.1739    0.3566 H        1 ZINC000437192871    0.0900
34     H34    -1.7097   -1.9371   -2.0200 H        1 ZINC000437192871    0.1600
35     H35    -5.4794   -2.5294   -1.5393 H        1 ZINC000437192871    0.0900
36     H36    -4.1116   -3.0174   -2.5686 H        1 ZINC000437192871    0.0800
37     H37    -4.6276   -4.9260    1.1216 H        1 ZINC000437192871    0.1000
38     H38    -5.3948   -3.3378    0.8819 H        1 ZINC000437192871    0.1000
39     H39    -7.1141   -5.0656    0.7401 H        1 ZINC000437192871    0.0600
40     H40    -6.8614   -4.3789   -0.8825 H        1 ZINC000437192871    0.0500
41     H41    -6.8491   -6.7673   -0.9151 H        1 ZINC000437192871    0.3800
42     H42     0.2884   -4.4070   -0.4503 H        1 ZINC000437192871    0.1000
43     H43     0.2331   -2.7200   -1.0155 H        1 ZINC000437192871    0.0900
44     H44    -1.0965   -3.3718   -0.0277 H        1 ZINC000437192871    0.0900
45     H45    -4.7877   -5.7232   -2.4601 H        1 ZINC000437192871    0.1600
46     H46    -6.7306   -6.6968   -3.6119 H        1 ZINC000437192871    0.1500
47     H47    -4.7588   -6.2308   -7.3684 H        1 ZINC000437192871    0.1500
48     H48    -4.9854   -0.7480    0.4649 H        1 ZINC000437192871    0.1800
@<TRIPOS>BOND
1     1     2     1
2     1     29    1
3     1     30    1
4     1     31    1
5     2     3     1
6     2     32    1
7     2     33    1
8     3     28    1
9     3     4     1
10    4     5     2
11    4     34    1
12    5     6     1
13    5     27    1
14    6     7     1
15    6     35    1
16    6     36    1
17    7     8     1
18    7     11    am
19    8     9     1
20    8     37    1
21    8     38    1
22    9     10    1
23    9     39    1
24    9     40    1
25    10    41    1
26    11    12    2
27    11    13    1
28    13    18    1
29    13    14    2
30    14    15    1
31    14    16    1
32    15    42    1
33    15    43    1
34    15    44    1
35    16    17    1
36    17    18    2
37    18    19    1
38    19    25    ar
39    19    20    ar
40    20    21    ar
41    20    45    1
42    21    22    ar
43    21    46    1
44    22    23    1
45    22    24    ar
46    24    25    ar
47    24    47    1
48    25    26    1
49    27    28    2
50    27    48    1
@<TRIPOS>SUBSTRUCTURE
1   ZINC000437192871 1     RESIDUE    1   A     ZIN   1
@<TRIPOS>MOLECULE
ZINC000566738344
43	44	1	0	0
SMALL
USER_CHARGES
@<TRIPOS>ATOM
1      C1      3.8324    0.1540   -4.5359 C.3      1 ZINC000566738344   -0.1300
2      C2      3.4111   -1.1949   -4.0125 C.ar     1 ZINC000566738344   -0.0100
3      C3      2.0991   -1.4193   -3.6640 C.ar     1 ZINC000566738344   -0.1000
4      C4      1.7091   -2.6655   -3.1797 C.ar     1 ZINC000566738344   -0.0500
5      S5      0.0281   -2.9486   -2.7339 S.3      1 ZINC000566738344   -0.0300
6      C6     -0.0007   -4.7226   -2.3559 C.3      1 ZINC000566738344   -0.1200
7      H7      0.7940   -4.9561   -1.6474 H        1 ZINC000566738344    0.1200
8      C8     -1.3537   -5.0919   -1.7446 C.3      1 ZINC000566738344   -0.1300
9      C9      0.2094   -5.5098   -3.6237 C.2      1 ZINC000566738344    0.5200
10     O10     0.0042   -4.9911   -4.7006 O.2      1 ZINC000566738344   -0.5000
11     N11     0.6253   -6.7902   -3.5608 N.am     1 ZINC000566738344   -0.6000
12     C12     0.8731   -7.4168   -2.2600 C.3      1 ZINC000566738344    0.0600
13     C13     0.8295   -7.5555   -4.7932 C.3      1 ZINC000566738344    0.1500
14     H14     0.6094   -6.9265   -5.6558 H        1 ZINC000566738344    0.1300
15     C15     2.2881   -8.0405   -4.8653 C.3      1 ZINC000566738344   -0.1300
16     C16     2.3477   -9.1003   -5.9955 C.3      1 ZINC000566738344   -0.5900
17     S17     0.8230  -10.0761   -5.7080 S.o2     1 ZINC000566738344    2.4000
18     O18     0.1831  -10.3271   -6.9516 O.2      1 ZINC000566738344   -0.9300
19     O19     1.1133  -11.1557   -4.8308 O.2      1 ZINC000566738344   -0.9300
20     C20    -0.0987   -8.7863   -4.7989 C.3      1 ZINC000566738344   -0.6200
21     C21     2.6446   -3.6883   -3.0474 C.ar     1 ZINC000566738344   -0.1400
22     C22     3.9584   -3.4702   -3.3943 C.ar     1 ZINC000566738344   -0.0400
23     C23     4.3521   -2.2218   -3.8858 C.ar     1 ZINC000566738344   -0.0400
24     C24     5.7184   -1.9916   -4.2477 C.1      1 ZINC000566738344    0.2500
25     N25     6.8023   -1.8089   -4.5348 N.1      1 ZINC000566738344   -0.4100
26     H26     3.7274    0.1717   -5.6207 H        1 ZINC000566738344    0.0800
27     H27     3.2016    0.9271   -4.0972 H        1 ZINC000566738344    0.0800
28     H28     4.8728    0.3387   -4.2685 H        1 ZINC000566738344    0.0700
29     H29     1.3711   -0.6281   -3.7657 H        1 ZINC000566738344    0.1400
30     H30    -2.1399   -4.9419   -2.4846 H        1 ZINC000566738344    0.0800
31     H31    -1.3399   -6.1373   -1.4361 H        1 ZINC000566738344    0.0800
32     H32    -1.5454   -4.4598   -0.8776 H        1 ZINC000566738344    0.0900
33     H33    -0.0428   -7.8880   -1.9032 H        1 ZINC000566738344    0.0700
34     H34     1.6534   -8.1709   -2.3627 H        1 ZINC000566738344    0.0800
35     H35     1.1931   -6.6578   -1.5461 H        1 ZINC000566738344    0.0800
36     H36     2.9479   -7.2056   -5.1014 H        1 ZINC000566738344    0.1100
37     H37     2.5793   -8.4902   -3.9161 H        1 ZINC000566738344    0.0900
38     H38     2.3227   -8.6231   -6.9751 H        1 ZINC000566738344    0.1400
39     H39     3.2335   -9.7271   -5.8918 H        1 ZINC000566738344    0.1400
40     H40    -0.3018   -9.1138   -3.7793 H        1 ZINC000566738344    0.1400
41     H41    -1.0300   -8.5521   -5.3147 H        1 ZINC000566738344    0.1500
42     H42     2.3389   -4.6537   -2.6719 H        1 ZINC000566738344    0.1200
43     H43     4.6836   -4.2638   -3.2911 H        1 ZINC000566738344    0.1400
@<TRIPOS>BOND
1     1     2     1
2     1     26    1
3     1     27    1
4     1     28    1
5     2     23    ar
6     2     3     ar
7     3     4     ar
8     3     29    1
9     4     5     1
10    4     21    ar
11    5     6     1
12    6     7     1
13    6     8     1
14    6     9     1
15    8     30    1
16    8     31    1
17    8     32    1
18    9     10    2
19    9     11    am
20    11    12    1
21    11    13    1
22    12    33    1
23    12    34    1
24    12    35    1
25    13    14    1
26    13    20    1
27    13    15    1
28    15    16    1
29    15    36    1
30    15    37    1
31    16    17    1
32    16    38    1
33    16    39    1
34    17    18    2
35    17    19    2
36    17    20    1
37    20    40    1
38    20    41    1
39    21    22    ar
40    21    42    1
41    22    23    ar
42    22    43    1
43    23    24    1
44    24    25    3
@<TRIPOS>SUBSTRUCTURE
1   ZINC000566738344 1     RESIDUE    1   A     ZIN   1
@<TRIPOS>MOLECULE
ZINC000744839011
43	43	1	0	0
SMALL
USER_CHARGES
@<TRIPOS>ATOM
1      C1     -0.0176    1.4478    0.0100 C.3      1 ZINC000744839011    0.0400
2      O2      0.0021   -0.0041    0.0020 O.3      1 ZINC000744839011   -0.3600
3      C3      0.6007   -0.6020   -1.0467 C.2      1 ZINC000744839011    0.5100
4      O4      1.0927    0.0714   -1.9304 O.2      1 ZINC000744839011   -0.5000
5      C5      0.6586   -2.0736   -1.1220 C.ar     1 ZINC000744839011   -0.1600
6      C6      0.0881   -2.8500   -0.1096 C.ar     1 ZINC000744839011   -0.0100
7      C7      0.1437   -4.2241   -0.1835 C.ar     1 ZINC000744839011   -0.2100
8      C8      0.7659   -4.8395   -1.2628 C.ar     1 ZINC000744839011    0.1800
9      O9      0.8184   -6.1940   -1.3316 O.3      1 ZINC000744839011   -0.2900
10     C10     0.2140   -6.9218   -0.2606 C.3      1 ZINC000744839011    0.0500
11     C11     0.3718   -8.4229   -0.5113 C.3      1 ZINC000744839011    0.0600
12     O12     1.7797   -8.7754   -0.4689 O.3      1 ZINC000744839011   -0.3400
13     C13     2.0914  -10.0652   -0.6713 C.2      1 ZINC000744839011    0.5000
14     O14     1.2167  -10.8729   -0.8771 O.2      1 ZINC000744839011   -0.4900
15     C15     3.5322  -10.5058   -0.6419 C.3      1 ZINC000744839011   -0.6400
16     S16     3.6248  -12.2915   -0.9471 S.o2     1 ZINC000744839011    2.4400
17     O17     3.0029  -12.9689    0.1362 O.2      1 ZINC000744839011   -0.9100
18     O18     3.1808  -12.5479   -2.2724 O.2      1 ZINC000744839011   -0.9100
19     C19     5.4118  -12.5931   -0.8679 C.3      1 ZINC000744839011   -0.5700
20     C20     5.9360  -12.1920    0.5125 C.3      1 ZINC000744839011   -0.1500
21     C21     5.6894  -14.0786   -1.1070 C.3      1 ZINC000744839011   -0.1500
22     C22     1.3348   -4.0709   -2.2734 C.ar     1 ZINC000744839011   -0.0800
23     Cl23    2.1103   -4.8456   -3.6197 Cl       1 ZINC000744839011   -0.0400
24     C24     1.2792   -2.6960   -2.2094 C.ar     1 ZINC000744839011   -0.0100
25     H25     1.0050    1.8251    0.0023 H        1 ZINC000744839011    0.0700
26     H26    -0.5448    1.8089   -0.8731 H        1 ZINC000744839011    0.0700
27     H27    -0.5278    1.7993    0.9068 H        1 ZINC000744839011    0.1100
28     H28    -0.3954   -2.3729    0.7301 H        1 ZINC000744839011    0.1500
29     H29    -0.2967   -4.8244    0.5989 H        1 ZINC000744839011    0.1500
30     H30     0.7002   -6.6572    0.6784 H        1 ZINC000744839011    0.0900
31     H31    -0.8455   -6.6723   -0.2041 H        1 ZINC000744839011    0.1000
32     H32    -0.1651   -8.9781    0.2579 H        1 ZINC000744839011    0.1100
33     H33    -0.0359   -8.6725   -1.4909 H        1 ZINC000744839011    0.0900
34     H34     4.0901   -9.9758   -1.4139 H        1 ZINC000744839011    0.1700
35     H35     3.9609  -10.2814    0.3348 H        1 ZINC000744839011    0.1700
36     H36     5.9144  -12.0017   -1.6333 H        1 ZINC000744839011    0.1400
37     H37     7.0097  -12.3732    0.5601 H        1 ZINC000744839011    0.0900
38     H38     5.7382  -11.1337    0.6828 H        1 ZINC000744839011    0.0700
39     H39     5.4334  -12.7834    1.2779 H        1 ZINC000744839011    0.0800
40     H40     5.3160  -14.3643   -2.0903 H        1 ZINC000744839011    0.0800
41     H41     6.7632  -14.2598   -1.0593 H        1 ZINC000744839011    0.0900
42     H42     5.1869  -14.6699   -0.3416 H        1 ZINC000744839011    0.0800
43     H43     1.7210   -2.0997   -2.9940 H        1 ZINC000744839011    0.1600
@<TRIPOS>BOND
1     1     2     1
2     1     25    1
3     1     26    1
4     1     27    1
5     2     3     1
6     3     4     2
7     3     5     1
8     5     24    ar
9     5     6     ar
10    6     7     ar
11    6     28    1
12    7     8     ar
13    7     29    1
14    8     9     1
15    8     22    ar
16    9     10    1
17    10    11    1
18    10    30    1
19    10    31    1
20    11    12    1
21    11    32    1
22    11    33    1
23    12    13    1
24    13    14    2
25    13    15    1
26    15    16    1
27    15    34    1
28    15    35    1
29    16    17    2
30    16    18    2
31    16    19    1
32    19    20    1
33    19    21    1
34    19    36    1
35    20    37    1
36    20    38    1
37    20    39    1
38    21    40    1
39    21    41    1
40    21    42    1
41    22    23    1
42    22    24    ar
43    24    43    1
@<TRIPOS>SUBSTRUCTURE
1   ZINC000744839011 1     RESIDUE    1   A     ZIN   1
@<TRIPOS>MOLECULE
ZINC001045463759
46	49	1	0	0
SMALL
USER_CHARGES
@<TRIPOS>ATOM
1      O1      0.0021   -0.0041    0.0020 O.2      1 ZINC001045463759   -0.5100
2      C2     -0.0144    1.2086    0.0087 C.2      1 ZINC001045463759    0.5400
3      N3      1.1435    1.8983    0.0013 N.am     1 ZINC001045463759   -0.7200
4      C4      2.4220    1.1832   -0.0147 C.3      1 ZINC001045463759    0.1400
5      H5      2.3225    0.2743   -0.6081 H        1 ZINC001045463759    0.1000
6      C6      2.8194    0.8168    1.4166 C.3      1 ZINC001045463759   -0.1300
7      C7      4.1546    0.0699    1.3999 C.3      1 ZINC001045463759   -0.1200
8      C8      5.2321    0.9652    0.7847 C.3      1 ZINC001045463759   -0.1200
9      C9      4.8347    1.3316   -0.6466 C.3      1 ZINC001045463759   -0.1300
10     C10     3.4995    2.0784   -0.6299 C.3      1 ZINC001045463759    0.1500
11     H11     3.5990    2.9873   -0.0364 H        1 ZINC001045463759    0.0900
12     N12     3.1190    2.4293   -2.0004 N.pl3    1 ZINC001045463759   -0.7100
13     C13     3.6085    3.5885   -2.5800 C.ar     1 ZINC001045463759    0.4400
14     C14     4.4698    4.4274   -1.8702 C.ar     1 ZINC001045463759   -0.3000
15     C15     4.9305    5.5714   -2.4919 C.ar     1 ZINC001045463759    0.1800
16     N16     4.5435    5.8339   -3.7322 N.ar     1 ZINC001045463759   -0.5600
17     C17     3.7293    5.0217   -4.3756 C.ar     1 ZINC001045463759    0.4000
18     C18     3.3171    5.3624   -5.7846 C.3      1 ZINC001045463759   -0.1100
19     C19     3.7086    6.7406   -6.3214 C.3      1 ZINC001045463759   -0.1500
20     C20     4.4239    5.4888   -6.8334 C.3      1 ZINC001045463759   -0.1500
21     N21     3.2699    3.9172   -3.8234 N.ar     1 ZINC001045463759   -0.5700
22     C22    -1.3296    1.9443    0.0189 C.3      1 ZINC001045463759   -0.2000
23     H23    -1.3411    2.8788    0.5799 H        1 ZINC001045463759    0.1500
24     C24    -2.1923    1.8667   -1.2423 C.3      1 ZINC001045463759   -0.1500
25     C25    -2.6087    1.1048    0.0184 C.3      1 ZINC001045463759    0.2300
26     F26    -2.4679   -0.2871    0.0080 F        1 ZINC001045463759   -0.1400
27     F27    -3.7038    1.5954    0.7375 F        1 ZINC001045463759   -0.1500
28     H28     1.1304    2.8682    0.0067 H        1 ZINC001045463759    0.4000
29     H29     2.9189    1.7256    2.0100 H        1 ZINC001045463759    0.0700
30     H30     2.0518    0.1789    1.8549 H        1 ZINC001045463759    0.0800
31     H31     4.4378   -0.1912    2.4196 H        1 ZINC001045463759    0.0700
32     H32     4.0551   -0.8390    0.8065 H        1 ZINC001045463759    0.0700
33     H33     5.3316    1.8740    1.3781 H        1 ZINC001045463759    0.0700
34     H34     6.1833    0.4331    0.7728 H        1 ZINC001045463759    0.0700
35     H35     5.6023    1.9694   -1.0849 H        1 ZINC001045463759    0.0700
36     H36     4.7352    0.4227   -1.2400 H        1 ZINC001045463759    0.0700
37     H37     2.5243    1.8500   -2.5020 H        1 ZINC001045463759    0.4100
38     H38     4.7679    4.1880   -0.8601 H        1 ZINC001045463759    0.1400
39     H39     5.5978    6.2442   -1.9737 H        1 ZINC001045463759    0.1700
40     H40     2.3621    4.9486   -6.1081 H        1 ZINC001045463759    0.1300
41     H41     3.0109    7.2339   -6.9982 H        1 ZINC001045463759    0.1000
42     H42     4.2642    7.4009   -5.6554 H        1 ZINC001045463759    0.1100
43     H43     5.4501    5.3255   -6.5043 H        1 ZINC001045463759    0.1000
44     H44     4.1969    5.1585   -7.8470 H        1 ZINC001045463759    0.1000
45     H45    -2.7717    2.7500   -1.5108 H        1 ZINC001045463759    0.1400
46     H46    -1.8086    1.2835   -2.0794 H        1 ZINC001045463759    0.1300
@<TRIPOS>BOND
1     1     2     2
2     2     3     am
3     2     22    1
4     3     4     1
5     3     28    1
6     4     5     1
7     4     10    1
8     4     6     1
9     6     7     1
10    6     29    1
11    6     30    1
12    7     8     1
13    7     31    1
14    7     32    1
15    8     9     1
16    8     33    1
17    8     34    1
18    9     10    1
19    9     35    1
20    9     36    1
21    10    11    1
22    10    12    1
23    12    13    1
24    12    37    1
25    13    21    ar
26    13    14    ar
27    14    15    ar
28    14    38    1
29    15    16    ar
30    15    39    1
31    16    17    ar
32    17    18    1
33    17    21    ar
34    18    20    1
35    18    19    1
36    18    40    1
37    19    20    1
38    19    41    1
39    19    42    1
40    20    43    1
41    20    44    1
42    22    23    1
43    22    25    1
44    22    24    1
45    24    25    1
46    24    45    1
47    24    46    1
48    25    26    1
49    25    27    1
@<TRIPOS>SUBSTRUCTURE
1   ZINC001045463759 1     RESIDUE    1   A     ZIN   1
@<TRIPOS>MOLECULE
ZINC000443394081
51	53	1	0	0
SMALL
USER_CHARGES
@<TRIPOS>ATOM
1      C1     -0.0175    1.3991   -0.2155 C.3      1 ZINC000443394081    0.0200
2      O2     -0.0034   -0.0291   -0.1677 O.3      1 ZINC000443394081   -0.3000
3      C3     -1.2076   -0.6562   -0.0903 C.ar     1 ZINC000443394081    0.1000
4      C4     -2.3723    0.0856   -0.0670 C.ar     1 ZINC000443394081   -0.1200
5      C5     -3.6083   -0.5622    0.0121 C.ar     1 ZINC000443394081   -0.1300
6      C6     -4.8561    0.2258    0.0368 C.2      1 ZINC000443394081    0.5700
7      O7     -4.8659    1.3626   -0.3944 O.2      1 ZINC000443394081   -0.4900
8      N8     -5.9847   -0.3147    0.5372 N.am     1 ZINC000443394081   -0.6100
9      C9     -6.0873   -1.6258    1.2035 C.3      1 ZINC000443394081    0.0900
10     C10    -7.3423   -1.5154    2.1050 C.3      1 ZINC000443394081   -0.1300
11     C11    -8.2879   -0.6619    1.2193 C.3      1 ZINC000443394081   -0.1000
12     H12    -8.8066   -1.2884    0.4937 H        1 ZINC000443394081    0.0900
13     C13    -9.2904    0.1069    2.0823 C.3      1 ZINC000443394081   -0.1500
14     C14    -7.3163    0.3082    0.5149 C.3      1 ZINC000443394081    0.1400
15     H15    -7.6303    0.4629   -0.5174 H        1 ZINC000443394081    0.0800
16     C16    -7.2884    1.6463    1.2562 C.3      1 ZINC000443394081    0.0600
17     O17    -6.4778    2.5747    0.5330 O.3      1 ZINC000443394081   -0.5400
18     C18    -3.6601   -1.9568    0.0672 C.ar     1 ZINC000443394081   -0.1000
19     C19    -2.4940   -2.6913    0.0441 C.ar     1 ZINC000443394081   -0.1800
20     C20    -1.2668   -2.0485   -0.0402 C.ar     1 ZINC000443394081    0.1300
21     O21    -0.1207   -2.7765   -0.0627 O.3      1 ZINC000443394081   -0.3000
22     C22    -0.2536   -4.1978    0.0037 C.3      1 ZINC000443394081    0.1000
23     C23     1.1128   -4.8323   -0.0329 C.ar     1 ZINC000443394081   -0.0800
24     C24     2.2414   -4.0388   -0.1133 C.ar     1 ZINC000443394081   -0.0800
25     C25     3.4951   -4.6208   -0.1470 C.ar     1 ZINC000443394081   -0.1100
26     C26     3.6205   -5.9965   -0.1007 C.ar     1 ZINC000443394081   -0.1000
27     C27     2.4923   -6.7913   -0.0203 C.ar     1 ZINC000443394081   -0.1100
28     C28     1.2380   -6.2094    0.0197 C.ar     1 ZINC000443394081   -0.0300
29     Cl29   -0.1792   -7.2068    0.1207 Cl       1 ZINC000443394081   -0.0700
30     H30     1.0054    1.7707   -0.2758 H        1 ZINC000443394081    0.1000
31     H31    -0.5757    1.7277   -1.0921 H        1 ZINC000443394081    0.0600
32     H32    -0.4930    1.7881    0.6849 H        1 ZINC000443394081    0.0600
33     H33    -2.3281    1.1638   -0.1095 H        1 ZINC000443394081    0.1500
34     H34    -6.2188   -2.4171    0.4655 H        1 ZINC000443394081    0.0700
35     H35    -5.2007   -1.8141    1.8089 H        1 ZINC000443394081    0.0800
36     H36    -7.7710   -2.4984    2.2998 H        1 ZINC000443394081    0.0900
37     H37    -7.1096   -1.0006    3.0371 H        1 ZINC000443394081    0.0800
38     H38    -8.7523    0.7488    2.7797 H        1 ZINC000443394081    0.0600
39     H39    -9.9267    0.7185    1.4425 H        1 ZINC000443394081    0.0600
40     H40    -9.9066   -0.5988    2.6394 H        1 ZINC000443394081    0.0600
41     H41    -8.3026    2.0370    1.3389 H        1 ZINC000443394081    0.0600
42     H42    -6.8727    1.5007    2.2532 H        1 ZINC000443394081    0.0400
43     H43    -6.4148    3.4468    0.9460 H        1 ZINC000443394081    0.3700
44     H44    -4.6139   -2.4597    0.1284 H        1 ZINC000443394081    0.1400
45     H45    -2.5355   -3.7696    0.0872 H        1 ZINC000443394081    0.1400
46     H46    -0.7571   -4.4727    0.9306 H        1 ZINC000443394081    0.0800
47     H47    -0.8397   -4.5480   -0.8459 H        1 ZINC000443394081    0.0800
48     H48     2.1440   -2.9638   -0.1502 H        1 ZINC000443394081    0.1400
49     H49     4.3768   -4.0002   -0.2098 H        1 ZINC000443394081    0.1300
50     H50     4.6000   -6.4506   -0.1278 H        1 ZINC000443394081    0.1300
51     H51     2.5904   -7.8663    0.0159 H        1 ZINC000443394081    0.1400
@<TRIPOS>BOND
1     1     2     1
2     1     30    1
3     1     31    1
4     1     32    1
5     2     3     1
6     3     20    ar
7     3     4     ar
8     4     5     ar
9     4     33    1
10    5     6     1
11    5     18    ar
12    6     7     2
13    6     8     am
14    8     14    1
15    8     9     1
16    9     10    1
17    9     34    1
18    9     35    1
19    10    11    1
20    10    36    1
21    10    37    1
22    11    12    1
23    11    13    1
24    11    14    1
25    13    38    1
26    13    39    1
27    13    40    1
28    14    15    1
29    14    16    1
30    16    17    1
31    16    41    1
32    16    42    1
33    17    43    1
34    18    19    ar
35    18    44    1
36    19    20    ar
37    19    45    1
38    20    21    1
39    21    22    1
40    22    23    1
41    22    46    1
42    22    47    1
43    23    28    ar
44    23    24    ar
45    24    25    ar
46    24    48    1
47    25    26    ar
48    25    49    1
49    26    27    ar
50    26    50    1
51    27    28    ar
52    27    51    1
53    28    29    1
@<TRIPOS>SUBSTRUCTURE
1   ZINC000443394081 1     RESIDUE    1   A     ZIN   1
@<TRIPOS>MOLECULE
ZINC001708427409
58	60	1	0	0
SMALL
USER_CHARGES
@<TRIPOS>ATOM
1      C1     -0.3591    1.1993   -0.0114 C.3      1 ZINC001708427409   -0.1500
2      C2     -0.2792   -0.3271    0.0546 C.3      1 ZINC001708427409   -0.1200
3      C3      0.4872   -0.7438    1.3115 C.3      1 ZINC001708427409    0.0000
4      H4      0.0196   -0.2948    2.1878 H        1 ZINC001708427409    0.0800
5      C5      1.9371   -0.2667    1.2064 C.3      1 ZINC001708427409   -0.1400
6      C6      0.4605   -2.2449    1.4417 C.2      1 ZINC001708427409    0.1800
7      N7      0.9360   -3.1030    0.5841 N.2      1 ZINC001708427409   -0.2800
8      N8      0.7460   -4.3013    1.0082 N.2      1 ZINC001708427409   -0.3200
9      C9      0.1341   -4.2718    2.1686 C.2      1 ZINC001708427409    0.3600
10     N10    -0.2374   -5.3671    2.9321 N.3      1 ZINC001708427409   -0.4200
11     C11     0.6163   -5.4853    4.1467 C.3      1 ZINC001708427409    0.0400
12     C12     0.5002   -6.9669    4.5671 C.3      1 ZINC001708427409   -0.0900
13     H13    -0.2451   -7.0799    5.3543 H        1 ZINC001708427409    0.0900
14     C14     1.8566   -7.4928    5.0410 C.3      1 ZINC001708427409   -0.1500
15     C15     0.0476   -7.7147    3.2844 C.3      1 ZINC001708427409   -0.0800
16     H16     0.7474   -8.5090    3.0251 H        1 ZINC001708427409    0.0900
17     C17    -1.3455   -8.2806    3.5615 C.3      1 ZINC001708427409   -0.1100
18     C18    -1.9805   -8.7537    2.2542 C.3      1 ZINC001708427409   -0.1200
19     C19    -2.2095   -7.5375    1.3595 C.3      1 ZINC001708427409   -0.1100
20     C20    -0.8971   -6.8473    1.0481 C.3      1 ZINC001708427409   -0.1000
21     C21     0.0264   -6.6305    2.2101 C.3      1 ZINC001708427409    0.1000
22     H22     1.0360   -6.5513    1.8068 H        1 ZINC001708427409    0.0600
23     N23    -0.0619   -2.9589    2.4843 N.pl3    1 ZINC001708427409   -0.4700
24     C24    -0.7072   -2.4251    3.6864 C.3      1 ZINC001708427409    0.0800
25     C25    -2.2240   -2.4091    3.4866 C.3      1 ZINC001708427409    0.1200
26     C26    -2.8953   -1.8138    4.7260 C.3      1 ZINC001708427409   -0.1800
27     C27    -2.5682   -1.5588    2.2622 C.3      1 ZINC001708427409   -0.1500
28     O28    -2.6922   -3.7443    3.2862 O.3      1 ZINC001708427409   -0.5400
29     H29     0.6480    1.6148   -0.0455 H        1 ZINC001708427409    0.0600
30     H30    -0.9051    1.4962   -0.9069 H        1 ZINC001708427409    0.0600
31     H31    -0.8772    1.5745    0.8711 H        1 ZINC001708427409    0.0500
32     H32    -1.2863   -0.7426    0.0887 H        1 ZINC001708427409    0.0700
33     H33     0.2389   -0.7023   -0.8279 H        1 ZINC001708427409    0.0800
34     H34     1.9565    0.8190    1.1123 H        1 ZINC001708427409    0.0700
35     H35     2.4831   -0.5636    2.1019 H        1 ZINC001708427409    0.0500
36     H36     2.4048   -0.7158    0.3302 H        1 ZINC001708427409    0.0700
37     H37     1.6510   -5.2382    3.9090 H        1 ZINC001708427409    0.0600
38     H38     0.2423   -4.8358    4.9382 H        1 ZINC001708427409    0.0800
39     H39     2.1834   -6.9232    5.9109 H        1 ZINC001708427409    0.0600
40     H40     1.7646   -8.5452    5.3094 H        1 ZINC001708427409    0.0600
41     H41     2.5881   -7.3847    4.2402 H        1 ZINC001708427409    0.0600
42     H42    -1.2647   -9.1216    4.2503 H        1 ZINC001708427409    0.0600
43     H43    -1.9692   -7.5062    4.0080 H        1 ZINC001708427409    0.0700
44     H44    -1.3119   -9.4549    1.7550 H        1 ZINC001708427409    0.0600
45     H45    -2.9339   -9.2384    2.4645 H        1 ZINC001708427409    0.0600
46     H46    -2.6757   -7.8594    0.4284 H        1 ZINC001708427409    0.0600
47     H47    -2.8716   -6.8369    1.8684 H        1 ZINC001708427409    0.0600
48     H48    -0.3640   -7.4454    0.3090 H        1 ZINC001708427409    0.0600
49     H49    -1.1188   -5.8786    0.6004 H        1 ZINC001708427409    0.0700
50     H50    -0.4599   -3.0543    4.5414 H        1 ZINC001708427409    0.0900
51     H51    -0.3539   -1.4100    3.8681 H        1 ZINC001708427409    0.1000
52     H52    -2.5382   -0.7954    4.8788 H        1 ZINC001708427409    0.0700
53     H53    -3.9760   -1.8025    4.5837 H        1 ZINC001708427409    0.0700
54     H54    -2.6501   -2.4196    5.5983 H        1 ZINC001708427409    0.0600
55     H55    -2.0245   -1.9336    1.3950 H        1 ZINC001708427409    0.0700
56     H56    -3.6399   -1.6142    2.0709 H        1 ZINC001708427409    0.0700
57     H57    -2.2855   -0.5226    2.4482 H        1 ZINC001708427409    0.0700
58     H58    -2.5079   -4.3407    4.0248 H        1 ZINC001708427409    0.3800
@<TRIPOS>BOND
1     1     2     1
2     1     29    1
3     1     30    1
4     1     31    1
5     2     3     1
6     2     32    1
7     2     33    1
8     3     4     1
9     3     5     1
10    3     6     1
11    5     34    1
12    5     35    1
13    5     36    1
14    6     23    1
15    6     7     2
16    7     8     1
17    8     9     2
18    9     10    1
19    9     23    1
20    10    21    1
21    10    11    1
22    11    12    1
23    11    37    1
24    11    38    1
25    12    13    1
26    12    14    1
27    12    15    1
28    14    39    1
29    14    40    1
30    14    41    1
31    15    16    1
32    15    21    1
33    15    17    1
34    17    18    1
35    17    42    1
36    17    43    1
37    18    19    1
38    18    44    1
39    18    45    1
40    19    20    1
41    19    46    1
42    19    47    1
43    20    21    1
44    20    48    1
45    20    49    1
46    21    22    1
47    23    24    1
48    24    25    1
49    24    50    1
50    24    51    1
51    25    26    1
52    25    27    1
53    25    28    1
54    26    52    1
55    26    53    1
56    26    54    1
57    27    55    1
58    27    56    1
59    27    57    1
60    28    58    1
@<TRIPOS>SUBSTRUCTURE
1   ZINC001708427409 1     RESIDUE    1   A     ZIN   1
@<TRIPOS>MOLECULE
ZINC000581017854
40	42	1	0	0
SMALL
USER_CHARGES
@<TRIPOS>ATOM
1      C1     -0.0187    1.5258    0.0104 C.3      1 ZINC000581017854   -0.1600
2      C2      0.0021   -0.0041    0.0020 C.3      1 ZINC000581017854    0.1500
3      H3      0.5123   -0.3556   -0.8948 H        1 ZINC000581017854    0.1100
4      C4      0.7421   -0.5109    1.2415 C.3      1 ZINC000581017854    0.0500
5      O5      0.1431    0.0444    2.4141 O.3      1 ZINC000581017854   -0.3100
6      C6      0.6851   -0.3077    3.6096 C.ar     1 ZINC000581017854    0.1600
7      C7      1.7746   -1.1654    3.6525 C.ar     1 ZINC000581017854   -0.2200
8      C8      2.3249   -1.5227    4.8686 C.ar     1 ZINC000581017854   -0.0500
9      C9      1.7909   -1.0270    6.0430 C.ar     1 ZINC000581017854   -0.1900
10     C10     0.7028   -0.1708    6.0040 C.ar     1 ZINC000581017854    0.1400
11     F11     0.1822    0.3127    7.1531 F        1 ZINC000581017854   -0.1300
12     C12     0.1532    0.1946    4.7881 C.ar     1 ZINC000581017854   -0.1900
13     N13    -1.3723   -0.5112    0.0124 N.am     1 ZINC000581017854   -0.7300
14     C14    -2.0508   -0.6427   -1.1446 C.2      1 ZINC000581017854    0.5900
15     O15    -1.5219   -0.3404   -2.1978 O.2      1 ZINC000581017854   -0.5400
16     C16    -3.4291   -1.1512   -1.1342 C.2      1 ZINC000581017854   -0.2200
17     C17    -4.1534   -1.5232   -0.0406 C.2      1 ZINC000581017854    0.1100
18     N18    -5.3844   -1.9389   -0.4258 N.pl3    1 ZINC000581017854   -0.5700
19     C19    -5.5141   -1.8543   -1.7968 C.ar     1 ZINC000581017854    0.1100
20     C20    -6.5511   -2.1514   -2.6745 C.ar     1 ZINC000581017854   -0.1600
21     C21    -6.3816   -1.9586   -4.0305 C.ar     1 ZINC000581017854    0.1200
22     F22    -7.3918   -2.2481   -4.8795 F        1 ZINC000581017854   -0.1400
23     C23    -5.1814   -1.4688   -4.5300 C.ar     1 ZINC000581017854   -0.1700
24     C24    -4.1437   -1.1693   -3.6747 C.ar     1 ZINC000581017854   -0.0300
25     C25    -4.3041   -1.3538   -2.3040 C.ar     1 ZINC000581017854   -0.0700
26     H26     1.0039    1.9031    0.0027 H        1 ZINC000581017854    0.0700
27     H27    -0.5459    1.8868   -0.8726 H        1 ZINC000581017854    0.0700
28     H28    -0.5289    1.8773    0.9072 H        1 ZINC000581017854    0.0700
29     H29     0.6803   -1.5984    1.2822 H        1 ZINC000581017854    0.0700
30     H30     1.7879   -0.2080    1.1895 H        1 ZINC000581017854    0.0800
31     H31     2.1925   -1.5540    2.7356 H        1 ZINC000581017854    0.1400
32     H32     3.1731   -2.1905    4.9014 H        1 ZINC000581017854    0.1400
33     H33     2.2224   -1.3079    6.9924 H        1 ZINC000581017854    0.1400
34     H34    -0.6950    0.8624    4.7570 H        1 ZINC000581017854    0.1400
35     H35    -1.7940   -0.7522    0.8520 H        1 ZINC000581017854    0.4000
36     H36    -3.7994   -1.4914    0.9792 H        1 ZINC000581017854    0.1800
37     H37    -6.0766   -2.2523    0.1773 H        1 ZINC000581017854    0.4200
38     H38    -7.4877   -2.5329   -2.2956 H        1 ZINC000581017854    0.1400
39     H39    -5.0612   -1.3227   -5.5933 H        1 ZINC000581017854    0.1400
40     H40    -3.2114   -0.7890   -4.0654 H        1 ZINC000581017854    0.1500
@<TRIPOS>BOND
1     1     2     1
2     1     26    1
3     1     27    1
4     1     28    1
5     2     3     1
6     2     4     1
7     2     13    1
8     4     5     1
9     4     29    1
10    4     30    1
11    5     6     1
12    6     12    ar
13    6     7     ar
14    7     8     ar
15    7     31    1
16    8     9     ar
17    8     32    1
18    9     10    ar
19    9     33    1
20    10    11    1
21    10    12    ar
22    12    34    1
23    13    14    am
24    13    35    1
25    14    15    2
26    14    16    1
27    16    25    1
28    16    17    2
29    17    18    1
30    17    36    1
31    18    19    1
32    18    37    1
33    19    25    ar
34    19    20    ar
35    20    21    ar
36    20    38    1
37    21    22    1
38    21    23    ar
39    23    24    ar
40    23    39    1
41    24    25    ar
42    24    40    1
@<TRIPOS>SUBSTRUCTURE
1   ZINC000581017854 1     RESIDUE    1   A     ZIN   1
@<TRIPOS>MOLECULE
ZINC000193795672
47	48	0	0	0
SMALL
USER_CHARGES
@<TRIPOS>ATOM
1 C1       -0.0184     1.5028     0.0103 C.3    1 <0>      -0.1000
2 C2        0.0021    -0.0041     0.0020 C.ar   1 <0>      -0.2000
3 C3        0.0060    -0.6987    -1.2001 C.ar   1 <0>      -0.0300
4 C4        0.0254    -2.0815    -1.1635 C.ar   1 <0>      -0.2400
5 C5        0.0403    -2.7254     0.0693 C.ar   1 <0>       0.4000
6 N6        0.0599    -4.1144     0.1207 N.pl3  1 <0>      -0.7300
7 C7        0.0648    -4.8934    -1.1200 C.3    1 <0>       0.1300
8 C8        0.0872    -6.3861    -0.7849 C.3    1 <0>      -0.1400
9 C9        0.0923    -7.1996    -2.0807 C.3    1 <0>       0.1400
10 N10       0.1138    -8.6289    -1.7599 N.am   1 <0>      -0.7500
11 C11       0.1217    -9.5420    -2.7511 C.2    1 <0>       0.7100
12 O12       0.1111    -9.1795    -3.9117 O.2    1 <0>      -0.5900
13 N13       0.1415   -10.8569    -2.4560 N.am   1 <0>      -0.7400
14 C14       0.1501   -11.8494    -3.5335 C.3    1 <0>       0.1700
15 H15      -0.4485   -11.4847    -4.3682 H      1 <0>       0.0900
16 C16       1.5883   -12.0825    -4.0007 C.3    1 <0>      -0.1700
17 C17      -0.4388   -13.1649    -3.0199 C.3    1 <0>      -0.0600
18 C18      -1.8919   -12.9638    -2.6747 C.2    1 <0>      -0.1700
19 C19      -2.9131   -13.1386    -3.5148 C.2    1 <0>      -0.1400
20 C20      -4.1630   -12.8945    -2.9723 C.2    1 <0>      -0.1300
21 C21      -4.1568   -12.5215    -1.6916 C.2    1 <0>      -0.2100
22 S22      -2.5011   -12.4702    -1.1003 S.3    1 <0>       0.0900
23 N23       0.0364    -2.0271     1.1944 N.ar   1 <0>      -0.5400
24 C24       0.0229    -0.7077     1.1897 C.ar   1 <0>       0.1500
25 H25       1.0042     1.8801     0.0026 H      1 <0>       0.0700
26 H26      -0.5455     1.8639    -0.8728 H      1 <0>       0.0600
27 H27      -0.5286     1.8543     0.9071 H      1 <0>       0.0700
28 H28      -0.0063    -0.1714    -2.1426 H      1 <0>       0.1300
29 H29       0.0286    -2.6533    -2.0798 H      1 <0>       0.1300
30 H30       0.0704    -4.5679     0.9782 H      1 <0>       0.4000
31 H31      -0.8313    -4.6639    -1.6966 H      1 <0>       0.0700
32 H32       0.9485    -4.6391    -1.7052 H      1 <0>       0.0700
33 H33       0.9833    -6.6156    -0.2083 H      1 <0>       0.0800
34 H34      -0.7965    -6.6404    -0.1997 H      1 <0>       0.0800
35 H35      -0.8037    -6.9701    -2.6573 H      1 <0>       0.0700
36 H36       0.9760    -6.9453    -2.6659 H      1 <0>       0.0700
37 H37       0.1223    -8.9181    -0.8340 H      1 <0>       0.4000
38 H38       0.1499   -11.1461    -1.5301 H      1 <0>       0.3900
39 H39       2.1869   -12.4472    -3.1660 H      1 <0>       0.0600
40 H40       1.5947   -12.8210    -4.8024 H      1 <0>       0.0700
41 H41       2.0078   -11.1454    -4.3666 H      1 <0>       0.0700
42 H42      -0.3512   -13.9284    -3.7928 H      1 <0>       0.1000
43 H43       0.1051   -13.4838    -2.1308 H      1 <0>       0.0800
44 H44      -2.7752   -13.4469    -4.5406 H      1 <0>       0.1400
45 H45      -5.0742   -12.9979    -3.5428 H      1 <0>       0.1400
46 H46      -5.0344   -12.2900    -1.1063 H      1 <0>       0.1600
47 H47       0.0201    -0.1714     2.1271 H      1 <0>       0.1500
@<TRIPOS>BOND
1    1    2 1
2    1   25 1
3    1   26 1
4    1   27 1
5    2   24 ar
6    2    3 ar
7    3    4 ar
8    3   28 1
9    4    5 ar
10    4   29 1
11    5    6 1
12    5   23 ar
13    6    7 1
14    6   30 1
15    7    8 1
16    7   31 1
17    7   32 1
18    8    9 1
19    8   33 1
20    8   34 1
21    9   10 1
22    9   35 1
23    9   36 1
24   10   11 am
25   10   37 1
26   11   12 2
27   11   13 am
28   13   14 1
29   13   38 1
30   14   15 1
31   14   16 1
32   14   17 1
33   16   39 1
34   16   40 1
35   16   41 1
36   17   18 1
37   17   42 1
38   17   43 1
39   18   22 1
40   18   19 2
41   19   20 1
42   19   44 1
43   20   21 2
44   20   45 1
45   21   22 1
46   21   46 1
47   23   24 ar
48   24   47 1
@<TRIPOS>MOLECULE
ZINC000548281822
48	50	1	0	0
SMALL
USER_CHARGES
@<TRIPOS>ATOM
1      C1     -0.0187    1.5258    0.0104 C.3      1 ZINC000548281822   -0.1700
2      C2      0.0021   -0.0041    0.0020 C.3      1 ZINC000548281822    0.2600
3      H3     -1.0205   -0.3814    0.0098 H        1 ZINC000548281822    0.1400
4      N4      0.6878   -0.4765   -1.2033 N.am     1 ZINC000548281822   -0.7400
5      C5      0.0062   -0.6081   -2.3585 C.2      1 ZINC000548281822    0.7100
6      O6     -1.1778   -0.3348   -2.4004 O.2      1 ZINC000548281822   -0.5700
7      N7      0.6370   -1.0428   -3.4674 N.am     1 ZINC000548281822   -0.7400
8      C8     -0.1039   -1.1859   -4.7231 C.3      1 ZINC000548281822    0.1600
9      H9     -0.8551   -0.3993   -4.7942 H        1 ZINC000548281822    0.1000
10     C10     0.8651   -1.0758   -5.9040 C.3      1 ZINC000548281822   -0.1400
11     C11     0.0703   -0.9895   -7.2116 C.3      1 ZINC000548281822    0.1100
12     N12    -0.9102   -2.0773   -7.2406 N.pl3    1 ZINC000548281822   -0.4600
13     C13    -1.5856   -2.5641   -8.3199 C.2      1 ZINC000548281822   -0.0500
14     C14    -2.3747   -3.5592   -7.8664 C.2      1 ZINC000548281822   -0.0300
15     N15    -2.1822   -3.6729   -6.5422 N.2      1 ZINC000548281822   -0.4900
16     C16    -1.3075   -2.7893   -6.1594 C.2      1 ZINC000548281822    0.2100
17     C17    -0.7921   -2.5563   -4.7586 C.3      1 ZINC000548281822   -0.0500
18     C18     0.7309   -0.5033    1.2229 C.2      1 ZINC000548281822    0.1700
19     N19     0.1901   -1.0387    2.2908 N.2      1 ZINC000548281822   -0.4600
20     C20     1.2167   -1.3286    3.1099 C.2      1 ZINC000548281822    0.1900
21     C21     1.1182   -1.9630    4.4733 C.3      1 ZINC000548281822    0.0200
22     C22     0.4625   -3.3398    4.3490 C.3      1 ZINC000548281822   -0.1400
23     C23     2.5201   -2.1175    5.0664 C.3      1 ZINC000548281822   -0.1400
24     C24     0.2721   -1.0759    5.3887 C.3      1 ZINC000548281822   -0.1400
25     N25     2.3092   -0.9615    2.5096 N.2      1 ZINC000548281822   -0.3700
26     O26     2.0524   -0.4902    1.4217 O.3      1 ZINC000548281822    0.0800
27     H27     1.0039    1.9031    0.0027 H        1 ZINC000548281822    0.0700
28     H28    -0.5459    1.8868   -0.8726 H        1 ZINC000548281822    0.0900
29     H29    -0.5289    1.8773    0.9072 H        1 ZINC000548281822    0.0800
30     H30     1.6324   -0.6946   -1.1699 H        1 ZINC000548281822    0.4000
31     H31     1.5816   -1.2609   -3.4340 H        1 ZINC000548281822    0.4000
32     H32     1.4759   -0.1803   -5.7905 H        1 ZINC000548281822    0.1000
33     H33     1.5097   -1.9545   -5.9281 H        1 ZINC000548281822    0.0800
34     H34    -0.4458   -0.0309   -7.2628 H        1 ZINC000548281822    0.0900
35     H35     0.7492   -1.0870   -8.0589 H        1 ZINC000548281822    0.1000
36     H36    -1.5049   -2.2193   -9.3402 H        1 ZINC000548281822    0.1800
37     H37    -3.0450   -4.1594   -8.4637 H        1 ZINC000548281822    0.1700
38     H38    -0.0751   -3.3344   -4.4965 H        1 ZINC000548281822    0.0900
39     H39    -1.6236   -2.5692   -4.0540 H        1 ZINC000548281822    0.1000
40     H40     1.0653   -3.9718    3.6968 H        1 ZINC000548281822    0.0600
41     H41     0.3912   -3.7987    5.3351 H        1 ZINC000548281822    0.0700
42     H42    -0.5363   -3.2297    3.9264 H        1 ZINC000548281822    0.0700
43     H43     2.9872   -1.1367    5.1550 H        1 ZINC000548281822    0.0600
44     H44     2.4488   -2.5764    6.0525 H        1 ZINC000548281822    0.0700
45     H45     3.1229   -2.7495    4.4143 H        1 ZINC000548281822    0.0600
46     H46    -0.7267   -0.9658    4.9662 H        1 ZINC000548281822    0.0700
47     H47     0.2008   -1.5348    6.3748 H        1 ZINC000548281822    0.0700
48     H48     0.7392   -0.0951    5.4773 H        1 ZINC000548281822    0.0600
@<TRIPOS>BOND
1     1     2     1
2     1     27    1
3     1     28    1
4     1     29    1
5     2     3     1
6     2     4     1
7     2     18    1
8     4     5     am
9     4     30    1
10    5     6     2
11    5     7     am
12    7     8     1
13    7     31    1
14    8     9     1
15    8     17    1
16    8     10    1
17    10    11    1
18    10    32    1
19    10    33    1
20    11    12    1
21    11    34    1
22    11    35    1
23    12    16    1
24    12    13    1
25    13    14    2
26    13    36    1
27    14    15    1
28    14    37    1
29    15    16    2
30    16    17    1
31    17    38    1
32    17    39    1
33    18    26    1
34    18    19    2
35    19    20    1
36    20    21    1
37    20    25    2
38    21    22    1
39    21    23    1
40    21    24    1
41    22    40    1
42    22    41    1
43    22    42    1
44    23    43    1
45    23    44    1
46    23    45    1
47    24    46    1
48    24    47    1
49    24    48    1
50    25    26    1
@<TRIPOS>SUBSTRUCTURE
1   ZINC000548281822 1     RESIDUE    1   A     ZIN   1
@<TRIPOS>MOLECULE
ZINC000269287897
48	49	1	0	0
SMALL
USER_CHARGES
@<TRIPOS>ATOM
1      C1     -3.0110    0.9554   -5.0482 C.3      1 ZINC000269287897    0.0300
2      O2     -2.4569   -0.0938   -4.2518 O.3      1 ZINC000269287897   -0.3800
3      C3     -1.6397   -1.0094   -4.9837 C.3      1 ZINC000269287897    0.0600
4      C4     -1.1031   -2.0840   -4.0359 C.3      1 ZINC000269287897    0.0600
5      O5     -2.1907   -2.8644   -3.5359 O.3      1 ZINC000269287897   -0.3800
6      C6     -1.7962   -3.9022   -2.6363 C.3      1 ZINC000269287897    0.0700
7      C7     -3.0345   -4.6685   -2.1671 C.3      1 ZINC000269287897   -0.1000
8      H8     -3.6119   -5.0318   -3.0172 H        1 ZINC000269287897    0.1000
9      C9     -2.6418   -5.8349   -1.2222 C.3      1 ZINC000269287897   -0.1200
10     C10    -3.9064   -6.0196   -0.3571 C.3      1 ZINC000269287897    0.1000
11     N11    -4.6567   -4.7562   -0.4055 N.am     1 ZINC000269287897   -0.6300
12     C12    -5.8331   -4.5173    0.2073 C.2      1 ZINC000269287897    0.7300
13     O13    -6.3657   -3.4297    0.0980 O.2      1 ZINC000269287897   -0.5600
14     N14    -6.4191   -5.4839    0.9412 N.am     1 ZINC000269287897   -0.6900
15     C15    -7.6010   -5.2123    1.6405 C.ar     1 ZINC000269287897    0.1800
16     C16    -7.6690   -4.1195    2.4937 C.ar     1 ZINC000269287897   -0.0600
17     C17    -6.4700   -3.2234    2.6685 C.3      1 ZINC000269287897   -0.1000
18     C18    -8.8370   -3.8537    3.1821 C.ar     1 ZINC000269287897   -0.0900
19     C19    -9.9378   -4.6747    3.0222 C.ar     1 ZINC000269287897   -0.0800
20     C20   -11.2100   -4.3815    3.7749 C.3      1 ZINC000269287897   -0.1100
21     C21    -9.8742   -5.7643    2.1727 C.ar     1 ZINC000269287897   -0.0900
22     C22    -8.7107   -6.0329    1.4776 C.ar     1 ZINC000269287897   -0.1000
23     Br23   -8.6244   -7.5224    0.3158 Br       1 ZINC000269287897   -0.0500
24     C24    -3.9091   -3.7931   -1.2352 C.3      1 ZINC000269287897    0.1400
25     H25    -2.2047    1.5337   -5.4993 H        1 ZINC000269287897    0.0400
26     H26    -3.6332    0.5257   -5.8333 H        1 ZINC000269287897    0.0400
27     H27    -3.6178    1.6070   -4.4195 H        1 ZINC000269287897    0.0900
28     H28    -2.2334   -1.4799   -5.7674 H        1 ZINC000269287897    0.0600
29     H29    -0.8049   -0.4719   -5.4334 H        1 ZINC000269287897    0.0600
30     H30    -0.4097   -2.7300   -4.5744 H        1 ZINC000269287897    0.0700
31     H31    -0.5845   -1.6082   -3.2036 H        1 ZINC000269287897    0.0600
32     H32    -1.1172   -4.5860   -3.1458 H        1 ZINC000269287897    0.0600
33     H33    -1.2920   -3.4641   -1.7749 H        1 ZINC000269287897    0.0500
34     H34    -2.4297   -6.7389   -1.7931 H        1 ZINC000269287897    0.0900
35     H35    -1.7880   -5.5591   -0.6033 H        1 ZINC000269287897    0.0800
36     H36    -4.5161   -6.8285   -0.7597 H        1 ZINC000269287897    0.0700
37     H37    -3.6226   -6.2430    0.6713 H        1 ZINC000269287897    0.0700
38     H38    -6.0219   -6.3678    0.9849 H        1 ZINC000269287897    0.4100
39     H39    -6.5762   -2.3458    2.0308 H        1 ZINC000269287897    0.0900
40     H40    -6.3998   -2.9095    3.7099 H        1 ZINC000269287897    0.0600
41     H41    -5.5668   -3.7669    2.3911 H        1 ZINC000269287897    0.0600
42     H42    -8.8901   -3.0037    3.8462 H        1 ZINC000269287897    0.1300
43     H43   -11.8418   -3.7236    3.1782 H        1 ZINC000269287897    0.0700
44     H44   -11.7394   -5.3140    3.9708 H        1 ZINC000269287897    0.0700
45     H45   -10.9691   -3.8950    4.7200 H        1 ZINC000269287897    0.0700
46     H46   -10.7358   -6.4038    2.0500 H        1 ZINC000269287897    0.1400
47     H47    -3.2797   -3.1611   -0.6087 H        1 ZINC000269287897    0.0700
48     H48    -4.5967   -3.1832   -1.8211 H        1 ZINC000269287897    0.0900
@<TRIPOS>BOND
1     1     2     1
2     1     25    1
3     1     26    1
4     1     27    1
5     2     3     1
6     3     4     1
7     3     28    1
8     3     29    1
9     4     5     1
10    4     30    1
11    4     31    1
12    5     6     1
13    6     7     1
14    6     32    1
15    6     33    1
16    7     8     1
17    7     24    1
18    7     9     1
19    9     10    1
20    9     34    1
21    9     35    1
22    10    11    1
23    10    36    1
24    10    37    1
25    11    12    am
26    11    24    1
27    12    13    2
28    12    14    am
29    14    15    1
30    14    38    1
31    15    22    ar
32    15    16    ar
33    16    17    1
34    16    18    ar
35    17    39    1
36    17    40    1
37    17    41    1
38    18    19    ar
39    18    42    1
40    19    20    1
41    19    21    ar
42    20    43    1
43    20    44    1
44    20    45    1
45    21    22    ar
46    21    46    1
47    22    23    1
48    24    47    1
49    24    48    1
@<TRIPOS>SUBSTRUCTURE
1   ZINC000269287897 1     RESIDUE    1   A     ZIN   1
@<TRIPOS>MOLECULE
ZINC001318556452
46	48	1	0	0
SMALL
USER_CHARGES
@<TRIPOS>ATOM
1      C1     -0.8496    1.3889    0.1312 C.3      1 ZINC001318556452   -0.1300
2      C2     -0.4052   -0.0492    0.0583 C.ar     1 ZINC001318556452   -0.1000
3      C3     -0.4407   -0.7235   -1.1461 C.ar     1 ZINC001318556452   -0.0500
4      C4     -0.9247   -0.0205   -2.3882 C.3      1 ZINC001318556452   -0.4100
5      S5      0.4788    0.7727   -3.2198 S.o      1 ZINC001318556452    1.2500
6      C6     -0.2910    1.5523   -4.6655 C.3      1 ZINC001318556452   -0.4900
7      O7      1.3976   -0.2219   -3.6510 O.2      1 ZINC001318556452   -0.8400
8      C8     -0.0322   -2.0431   -1.2140 C.ar     1 ZINC001318556452   -0.1200
9      C9      0.4121   -2.6919   -0.0767 C.ar     1 ZINC001318556452   -0.1000
10     C10     0.4493   -2.0236    1.1315 C.ar     1 ZINC001318556452   -0.1200
11     C11     0.0460   -0.6964    1.2019 C.ar     1 ZINC001318556452    0.1400
12     N12     0.0828   -0.0169    2.4230 N.am     1 ZINC001318556452   -0.6600
13     C13    -0.0743   -0.6955    3.5768 C.2      1 ZINC001318556452    0.5600
14     O14    -0.1207   -1.9096    3.5661 O.2      1 ZINC001318556452   -0.5000
15     C15    -0.1904    0.0395    4.8592 C.2      1 ZINC001318556452   -0.0300
16     C16    -0.3067    1.4002    4.8759 C.2      1 ZINC001318556452   -0.1600
17     C17    -0.4199    2.0960    6.1555 C.2      1 ZINC001318556452    0.5300
18     O18    -0.5236    3.3097    6.1712 O.2      1 ZINC001318556452   -0.5200
19     N19    -0.4118    1.4171    7.3158 N.am     1 ZINC001318556452   -0.5200
20     C20    -0.5286    2.1517    8.5779 C.3      1 ZINC001318556452    0.0600
21     C21    -0.2963    0.0437    7.3420 C.ar     1 ZINC001318556452    0.1800
22     C22    -0.2900   -0.6406    8.5546 C.ar     1 ZINC001318556452   -0.1700
23     C23    -0.1739   -2.0135    8.5663 C.ar     1 ZINC001318556452   -0.0600
24     C24    -0.0629   -2.7239    7.3790 C.ar     1 ZINC001318556452   -0.1500
25     C25    -0.0668   -2.0730    6.1778 C.ar     1 ZINC001318556452   -0.0600
26     C26    -0.1892   -0.6811    6.1416 C.ar     1 ZINC001318556452   -0.1100
27     H27     0.0024    2.0424   -0.0562 H        1 ZINC001318556452    0.0800
28     H28    -1.6185    1.5701   -0.6199 H        1 ZINC001318556452    0.0800
29     H29    -1.2542    1.5945    1.1222 H        1 ZINC001318556452    0.0700
30     H30    -1.3830   -0.7456   -3.0608 H        1 ZINC001318556452    0.1000
31     H31    -1.6597    0.7363   -2.1143 H        1 ZINC001318556452    0.1300
32     H32    -1.0419    2.2698   -4.3347 H        1 ZINC001318556452    0.1100
33     H33     0.4716    2.0677   -5.2495 H        1 ZINC001318556452    0.1100
34     H34    -0.7652    0.7879   -5.2811 H        1 ZINC001318556452    0.0800
35     H35    -0.0606   -2.5681   -2.1574 H        1 ZINC001318556452    0.1200
36     H36     0.7301   -3.7225   -0.1331 H        1 ZINC001318556452    0.1300
37     H37     0.7961   -2.5311    2.0195 H        1 ZINC001318556452    0.1500
38     H38     0.2214    0.9430    2.4399 H        1 ZINC001318556452    0.4100
39     H39    -0.3145    1.9573    3.9507 H        1 ZINC001318556452    0.1600
40     H40    -0.6106    3.2187    8.3711 H        1 ZINC001318556452    0.1000
41     H41    -1.4169    1.8159    9.1129 H        1 ZINC001318556452    0.0800
42     H42     0.3550    1.9669    9.1889 H        1 ZINC001318556452    0.0800
43     H43    -0.3756   -0.0966    9.4837 H        1 ZINC001318556452    0.1400
44     H44    -0.1689   -2.5419    9.5082 H        1 ZINC001318556452    0.1300
45     H45     0.0278   -3.7998    7.4050 H        1 ZINC001318556452    0.1300
46     H46     0.0200   -2.6329    5.2583 H        1 ZINC001318556452    0.1700
@<TRIPOS>BOND
1     1     2     1
2     1     27    1
3     1     28    1
4     1     29    1
5     2     11    ar
6     2     3     ar
7     3     4     1
8     3     8     ar
9     4     5     1
10    4     30    1
11    4     31    1
12    5     6     1
13    5     7     2
14    6     32    1
15    6     33    1
16    6     34    1
17    8     9     ar
18    8     35    1
19    9     10    ar
20    9     36    1
21    10    11    ar
22    10    37    1
23    11    12    1
24    12    13    am
25    12    38    1
26    13    14    2
27    13    15    1
28    15    26    1
29    15    16    2
30    16    17    1
31    16    39    1
32    17    18    2
33    17    19    am
34    19    20    1
35    19    21    1
36    20    40    1
37    20    41    1
38    20    42    1
39    21    26    ar
40    21    22    ar
41    22    23    ar
42    22    43    1
43    23    24    ar
44    23    44    1
45    24    25    ar
46    24    45    1
47    25    26    ar
48    25    46    1
@<TRIPOS>SUBSTRUCTURE
1   ZINC001318556452 1     RESIDUE    1   A     ZIN   1
@<TRIPOS>MOLECULE
ZINC001058079801
47	49	1	0	0
SMALL
USER_CHARGES
@<TRIPOS>ATOM
1      C1     -0.0187    1.5258    0.0104 C.3      1 ZINC001058079801   -0.1500
2      C2      0.0021   -0.0041    0.0020 C.3      1 ZINC001058079801   -0.1200
3      C3     -1.4333   -0.5336    0.0129 C.3      1 ZINC001058079801   -0.0300
4      C4     -1.4129   -2.0405    0.0046 C.2      1 ZINC001058079801    0.2900
5      N5     -1.4090   -2.7058   -1.1138 N.2      1 ZINC001058079801   -0.4800
6      S6     -1.3847   -4.3473   -0.6744 S.3      1 ZINC001058079801    0.1900
7      C7     -1.3812   -4.0360    1.0202 C.2      1 ZINC001058079801    0.2700
8      N8     -1.3639   -4.9629    2.0467 N.3      1 ZINC001058079801   -0.4300
9      C9     -0.2287   -4.7286    2.9483 C.3      1 ZINC001058079801    0.0700
10     C10    -0.3233   -5.6759    4.1465 C.3      1 ZINC001058079801   -0.1300
11     C11    -0.3130   -7.1238    3.6482 C.3      1 ZINC001058079801    0.1300
12     N12    -0.4619   -8.0342    4.7863 N.am     1 ZINC001058079801   -0.6100
13     C13    -1.6557   -7.9604    5.6321 C.3      1 ZINC001058079801    0.0700
14     C14     0.4995   -8.9398    5.0551 C.2      1 ZINC001058079801    0.5200
15     O15     1.4878   -9.0010    4.3548 O.2      1 ZINC001058079801   -0.5300
16     C16     0.3463   -9.8764    6.2257 C.3      1 ZINC001058079801   -0.0600
17     C17     1.5488  -10.7811    6.3059 C.2      1 ZINC001058079801   -0.1900
18     C18     1.7262  -11.9869    5.7150 C.2      1 ZINC001058079801   -0.0400
19     O19     2.9466  -12.4095    6.0739 O.3      1 ZINC001058079801    0.1000
20     N20     3.5000  -11.6105    6.7933 N.2      1 ZINC001058079801   -0.3600
21     C21     2.7555  -10.5649    7.0103 C.2      1 ZINC001058079801    0.0000
22     C22    -1.4763   -7.3282    2.6738 C.3      1 ZINC001058079801   -0.1200
23     C23    -1.3483   -6.3329    1.5183 C.3      1 ZINC001058079801    0.0400
24     N24    -1.3929   -2.7239    1.1254 N.2      1 ZINC001058079801   -0.5300
25     H25     1.0039    1.9031    0.0027 H        1 ZINC001058079801    0.0600
26     H26    -0.5459    1.8868   -0.8726 H        1 ZINC001058079801    0.0600
27     H27    -0.5289    1.8773    0.9072 H        1 ZINC001058079801    0.0600
28     H28     0.5123   -0.3556   -0.8948 H        1 ZINC001058079801    0.0700
29     H29     0.5293   -0.3651    0.8851 H        1 ZINC001058079801    0.0700
30     H30    -1.9435   -0.1821    0.9097 H        1 ZINC001058079801    0.1000
31     H31    -1.9605   -0.1726   -0.8702 H        1 ZINC001058079801    0.0900
32     H32     0.7034   -4.9111    2.4136 H        1 ZINC001058079801    0.0600
33     H33    -0.2502   -3.6967    3.2986 H        1 ZINC001058079801    0.1000
34     H34     0.5278   -5.5126    4.8076 H        1 ZINC001058079801    0.0800
35     H35    -1.2487   -5.4846    4.6896 H        1 ZINC001058079801    0.0800
36     H36     0.6294   -7.3273    3.1398 H        1 ZINC001058079801    0.1000
37     H37    -2.4241   -8.6236    5.2349 H        1 ZINC001058079801    0.0600
38     H38    -1.4014   -8.2658    6.6471 H        1 ZINC001058079801    0.0800
39     H39    -2.0300   -6.9367    5.6438 H        1 ZINC001058079801    0.0800
40     H40     0.2650   -9.2976    7.1458 H        1 ZINC001058079801    0.1100
41     H41    -0.5530  -10.4781    6.0944 H        1 ZINC001058079801    0.1100
42     H42     1.0232  -12.5055    5.0801 H        1 ZINC001058079801    0.2200
43     H43     3.0070   -9.7057    7.6144 H        1 ZINC001058079801    0.1900
44     H44    -1.4490   -8.3453    2.2827 H        1 ZINC001058079801    0.0900
45     H45    -2.4199   -7.1628    3.1937 H        1 ZINC001058079801    0.0800
46     H46    -2.1830   -6.4663    0.8300 H        1 ZINC001058079801    0.1000
47     H47    -0.4109   -6.5080    0.9904 H        1 ZINC001058079801    0.0700
@<TRIPOS>BOND
1     1     2     1
2     1     25    1
3     1     26    1
4     1     27    1
5     2     3     1
6     2     28    1
7     2     29    1
8     3     4     1
9     3     30    1
10    3     31    1
11    4     24    1
12    4     5     2
13    5     6     1
14    6     7     1
15    7     8     1
16    7     24    2
17    8     23    1
18    8     9     1
19    9     10    1
20    9     32    1
21    9     33    1
22    10    11    1
23    10    34    1
24    10    35    1
25    11    12    1
26    11    22    1
27    11    36    1
28    12    13    1
29    12    14    am
30    13    37    1
31    13    38    1
32    13    39    1
33    14    15    2
34    14    16    1
35    16    17    1
36    16    40    1
37    16    41    1
38    17    21    1
39    17    18    2
40    18    19    1
41    18    42    1
42    19    20    1
43    20    21    2
44    21    43    1
45    22    23    1
46    22    44    1
47    22    45    1
48    23    46    1
49    23    47    1
@<TRIPOS>SUBSTRUCTURE
1   ZINC001058079801 1     RESIDUE    1   A     ZIN   1
@<TRIPOS>MOLECULE
ZINC001053792610
46	49	1	0	0
SMALL
USER_CHARGES
@<TRIPOS>ATOM
1      C1     -0.0184    1.5028    0.0103 C.3      1 ZINC001053792610   -0.1000
2      C2      0.0021   -0.0041    0.0020 C.ar     1 ZINC001053792610    0.0800
3      C3      0.0057   -0.6892   -1.1999 C.ar     1 ZINC001053792610    0.0600
4      N4      0.0236   -2.0106   -1.2072 N.ar     1 ZINC001053792610   -0.4200
5      C5      0.0381   -2.6774   -0.0667 C.ar     1 ZINC001053792610    0.0800
6      C6      0.0590   -4.1842   -0.0750 C.3      1 ZINC001053792610    0.0700
7      N7     -1.3143   -4.6924   -0.1922 N.3      1 ZINC001053792610   -0.4500
8      C8     -2.0506   -4.5243    1.0762 C.3      1 ZINC001053792610   -0.0100
9      C9     -2.6264   -5.9219    0.8570 C.3      1 ZINC001053792610    0.0800
10     C10    -1.3600   -6.1504    0.0344 C.3      1 ZINC001053792610   -0.0100
11     C11    -2.7498   -6.7847    2.1227 C.3      1 ZINC001053792610   -0.1500
12     C12    -4.2914   -6.8717    2.3047 C.3      1 ZINC001053792610    0.1100
13     H13    -4.5759   -7.7968    2.8061 H        1 ZINC001053792610    0.1200
14     N14    -4.8041   -5.7048    3.0270 N.am     1 ZINC001053792610   -0.7100
15     C15    -5.9574   -5.7935    3.7187 C.2      1 ZINC001053792610    0.5000
16     O16    -6.5709   -6.8395    3.7431 O.2      1 ZINC001053792610   -0.5100
17     C17    -6.4847   -4.5932    4.4617 C.3      1 ZINC001053792610    0.0800
18     H18    -5.6707   -4.0605    4.9533 H        1 ZINC001053792610    0.1300
19     C19    -7.2451   -3.6551    3.5044 C.3      1 ZINC001053792610    0.0500
20     O20    -8.6008   -3.6305    4.0377 O.3      1 ZINC001053792610   -0.3200
21     C21    -8.6672   -4.4089    5.1236 C.2      1 ZINC001053792610    0.6500
22     O22    -9.6873   -4.5674    5.7644 O.2      1 ZINC001053792610   -0.5100
23     N23    -7.5033   -4.9989    5.4422 N.am     1 ZINC001053792610   -0.7100
24     C24    -4.7653   -6.8682    0.8287 C.3      1 ZINC001053792610    0.0400
25     O25    -3.8571   -5.9871    0.1435 O.3      1 ZINC001053792610   -0.3300
26     C26     0.0344   -1.9921    1.1356 C.ar     1 ZINC001053792610    0.0600
27     N27     0.0220   -0.6709    1.1428 N.ar     1 ZINC001053792610   -0.4400
28     H28     1.0042    1.8801    0.0026 H        1 ZINC001053792610    0.0800
29     H29    -0.5455    1.8639   -0.8728 H        1 ZINC001053792610    0.0800
30     H30    -0.5286    1.8543    0.9071 H        1 ZINC001053792610    0.0800
31     H31    -0.0064   -0.1441   -2.1321 H        1 ZINC001053792610    0.1700
32     H32     0.6496   -4.5347   -0.9215 H        1 ZINC001053792610    0.1000
33     H33     0.5026   -4.5466    0.8523 H        1 ZINC001053792610    0.0600
34     H34    -1.4020   -4.4533    1.9493 H        1 ZINC001053792610    0.0800
35     H35    -2.8011   -3.7346    1.0418 H        1 ZINC001053792610    0.0900
36     H36    -1.5304   -6.7266   -0.8751 H        1 ZINC001053792610    0.1000
37     H37    -0.5219   -6.5256    0.6216 H        1 ZINC001053792610    0.0800
38     H38    -2.3201   -7.7736    1.9632 H        1 ZINC001053792610    0.1000
39     H39    -2.2841   -6.2924    2.9764 H        1 ZINC001053792610    0.1000
40     H40    -4.3134   -4.8683    3.0075 H        1 ZINC001053792610    0.4000
41     H41    -6.8093   -2.6562    3.5221 H        1 ZINC001053792610    0.1200
42     H42    -7.2402   -4.0573    2.4913 H        1 ZINC001053792610    0.1100
43     H43    -7.3605   -5.5957    6.1935 H        1 ZINC001053792610    0.4400
44     H44    -4.7058   -7.8728    0.4100 H        1 ZINC001053792610    0.0800
45     H45    -5.7848   -6.4887    0.7597 H        1 ZINC001053792610    0.0900
46     H46     0.0462   -2.5371    2.0679 H        1 ZINC001053792610    0.1600
@<TRIPOS>BOND
1     1     2     1
2     1     28    1
3     1     29    1
4     1     30    1
5     2     27    ar
6     2     3     ar
7     3     4     ar
8     3     31    1
9     4     5     ar
10    5     6     1
11    5     26    ar
12    6     7     1
13    6     32    1
14    6     33    1
15    7     10    1
16    7     8     1
17    8     9     1
18    8     34    1
19    8     35    1
20    9     25    1
21    9     10    1
22    9     11    1
23    10    36    1
24    10    37    1
25    11    12    1
26    11    38    1
27    11    39    1
28    12    13    1
29    12    14    1
30    12    24    1
31    14    15    am
32    14    40    1
33    15    16    2
34    15    17    1
35    17    18    1
36    17    23    1
37    17    19    1
38    19    20    1
39    19    41    1
40    19    42    1
41    20    21    1
42    21    22    2
43    21    23    am
44    23    43    1
45    24    25    1
46    24    44    1
47    24    45    1
48    26    27    ar
49    26    46    1
@<TRIPOS>SUBSTRUCTURE
1   ZINC001053792610 1     RESIDUE    1   A     ZIN   1
@<TRIPOS>MOLECULE
ZINC000600609084
56	59	1	0	0
SMALL
USER_CHARGES
@<TRIPOS>ATOM
1      O1     -0.2370    1.1179   -1.2913 O.2      1 ZINC000600609084   -0.5300
2      C2     -0.2254    1.9958   -0.4546 C.2      1 ZINC000600609084    0.5200
3      C3      0.9691    2.9069   -0.3351 C.3      1 ZINC000600609084   -0.1500
4      C4      2.0174    2.5130   -1.3775 C.3      1 ZINC000600609084    0.1300
5      N5      3.1785    3.3986   -1.2613 N.am     1 ZINC000600609084   -1.1200
6      S6      4.6075    2.9908   -1.9922 S.o2     1 ZINC000600609084    2.7000
7      O7      5.5121    4.0538   -1.7259 O.2      1 ZINC000600609084   -0.9600
8      O8      4.8690    1.6401   -1.6363 O.2      1 ZINC000600609084   -0.9500
9      C9      4.3254    3.0013   -3.7314 C.ar     1 ZINC000600609084   -0.6700
10     C10     3.8980    1.8360   -4.3644 C.ar     1 ZINC000600609084   -0.0400
11     C11     3.6709    1.8101   -5.7063 C.ar     1 ZINC000600609084   -0.1200
12     C12     3.8693    2.9743   -6.4675 C.ar     1 ZINC000600609084   -0.0100
13     C13     3.6447    2.9866   -7.8548 C.ar     1 ZINC000600609084   -0.1200
14     C14     3.8471    4.1330   -8.5596 C.ar     1 ZINC000600609084   -0.0900
15     C15     4.2747    5.2988   -7.9264 C.ar     1 ZINC000600609084   -0.1200
16     C16     4.5023    5.3245   -6.5849 C.ar     1 ZINC000600609084   -0.0900
17     C17     4.3041    4.1599   -5.8235 C.ar     1 ZINC000600609084   -0.0800
18     C18     4.5228    4.1494   -4.4357 C.ar     1 ZINC000600609084    0.0200
19     N19    -1.2830    2.1602    0.3645 N.am     1 ZINC000600609084   -0.7200
20     C20    -2.4466    1.2784    0.2442 C.3      1 ZINC000600609084    0.1400
21     H21    -2.1823    0.3874   -0.3252 H        1 ZINC000600609084    0.1000
22     C22    -2.9527    0.8799    1.6417 C.3      1 ZINC000600609084   -0.1300
23     C23    -4.4017    1.3979    1.7499 C.3      1 ZINC000600609084   -0.1300
24     C24    -4.4689    2.5558    0.7234 C.3      1 ZINC000600609084   -0.1200
25     C25    -3.6054    2.0242   -0.4491 C.3      1 ZINC000600609084   -0.0700
26     H26    -4.1840    1.3393   -1.0690 H        1 ZINC000600609084    0.0900
27     C27    -3.0800    3.1679   -1.2780 C.ar     1 ZINC000600609084   -0.0600
28     C28    -3.1589    3.1154   -2.6571 C.ar     1 ZINC000600609084   -0.1100
29     C29    -2.6769    4.1644   -3.4174 C.ar     1 ZINC000600609084   -0.1200
30     C30    -2.1164    5.2662   -2.7985 C.ar     1 ZINC000600609084   -0.1200
31     C31    -2.0383    5.3190   -1.4194 C.ar     1 ZINC000600609084   -0.1200
32     C32    -2.5242    4.2719   -0.6590 C.ar     1 ZINC000600609084   -0.1100
33     H33     0.6581    3.9378   -0.5041 H        1 ZINC000600609084    0.1000
34     H34     1.3972    2.8156    0.6632 H        1 ZINC000600609084    0.1000
35     H35     2.3284    1.4820   -1.2085 H        1 ZINC000600609084    0.0900
36     H36     1.5893    2.6042   -2.3758 H        1 ZINC000600609084    0.0800
37     H37     3.1104    4.2240   -0.7562 H        1 ZINC000600609084    0.4200
38     H38     3.7451    0.9396   -3.7817 H        1 ZINC000600609084    0.1400
39     H39     3.3402    0.8994   -6.1835 H        1 ZINC000600609084    0.1400
40     H40     3.3136    2.0907   -8.3591 H        1 ZINC000600609084    0.1300
41     H41     3.6742    4.1396   -9.6256 H        1 ZINC000600609084    0.1300
42     H42     4.4281    6.1950   -8.5092 H        1 ZINC000600609084    0.1300
43     H43     4.8338    6.2350   -6.1079 H        1 ZINC000600609084    0.1300
44     H44     4.8496    5.0465   -3.9309 H        1 ZINC000600609084    0.1500
45     H45    -1.2736    2.8624    1.0336 H        1 ZINC000600609084    0.4000
46     H46    -2.9347   -0.2045    1.7501 H        1 ZINC000600609084    0.0800
47     H47    -2.3324    1.3426    2.4094 H        1 ZINC000600609084    0.0700
48     H48    -5.1087    0.6117    1.4849 H        1 ZINC000600609084    0.0700
49     H49    -4.6005    1.7678    2.7558 H        1 ZINC000600609084    0.0700
50     H50    -5.4958    2.7265    0.4002 H        1 ZINC000600609084    0.0700
51     H51    -4.0373    3.4662    1.1393 H        1 ZINC000600609084    0.0700
52     H52    -3.5968    2.2547   -3.1405 H        1 ZINC000600609084    0.1200
53     H53    -2.7379    4.1231   -4.4948 H        1 ZINC000600609084    0.1200
54     H54    -1.7391    6.0854   -3.3926 H        1 ZINC000600609084    0.1200
55     H55    -1.6000    6.1796   -0.9360 H        1 ZINC000600609084    0.1200
56     H56    -2.4631    4.3132    0.4185 H        1 ZINC000600609084    0.1200
@<TRIPOS>BOND
1     1     2     2
2     2     3     1
3     2     19    am
4     3     4     1
5     3     33    1
6     3     34    1
7     4     5     1
8     4     35    1
9     4     36    1
10    5     6     am
11    5     37    1
12    6     7     2
13    6     8     2
14    6     9     1
15    9     18    ar
16    9     10    ar
17    10    11    ar
18    10    38    1
19    11    12    ar
20    11    39    1
21    12    17    ar
22    12    13    ar
23    13    14    ar
24    13    40    1
25    14    15    ar
26    14    41    1
27    15    16    ar
28    15    42    1
29    16    17    ar
30    16    43    1
31    17    18    ar
32    18    44    1
33    19    20    1
34    19    45    1
35    20    21    1
36    20    25    1
37    20    22    1
38    22    23    1
39    22    46    1
40    22    47    1
41    23    24    1
42    23    48    1
43    23    49    1
44    24    25    1
45    24    50    1
46    24    51    1
47    25    26    1
48    25    27    1
49    27    32    ar
50    27    28    ar
51    28    29    ar
52    28    52    1
53    29    30    ar
54    29    53    1
55    30    31    ar
56    30    54    1
57    31    32    ar
58    31    55    1
59    32    56    1
@<TRIPOS>SUBSTRUCTURE
1   ZINC000600609084 1     RESIDUE    1   A     ZIN   1
@<TRIPOS>MOLECULE
ZINC001289410668
60	61	1	0	0
SMALL
USER_CHARGES
@<TRIPOS>ATOM
1      C1     -0.0187    1.5258    0.0104 C.3      1 ZINC001289410668   -0.1500
2      C2      0.0021   -0.0041    0.0020 C.3      1 ZINC001289410668   -0.1300
3      C3     -1.4333   -0.5336    0.0129 C.3      1 ZINC001289410668   -0.1200
4      C4     -1.4126   -2.0635    0.0045 C.3      1 ZINC001289410668   -0.1200
5      C5     -2.8479   -2.5931    0.0153 C.3      1 ZINC001289410668   -0.1100
6      C6     -2.8272   -4.1229    0.0069 C.3      1 ZINC001289410668   -0.1400
7      C7     -4.2410   -4.6445    0.0176 C.2      1 ZINC001289410668    0.5100
8      O8     -5.1734   -3.8690    0.0307 O.2      1 ZINC001289410668   -0.5300
9      N9     -4.4693   -5.9728    0.0127 N.am     1 ZINC001289410668   -0.7200
10     C10    -5.8437   -6.4799    0.0231 C.3      1 ZINC001289410668    0.1400
11     H11    -6.5049   -5.8220   -0.5410 H        1 ZINC001289410668    0.1100
12     C12    -6.3544   -6.6699    1.4731 C.3      1 ZINC001289410668    0.0800
13     N13    -7.4063   -7.6978    1.3711 N.am     1 ZINC001289410668   -0.6200
14     C14    -8.4254   -7.8675    2.2366 C.2      1 ZINC001289410668    0.5100
15     O15    -9.2368   -8.7499    2.0525 O.2      1 ZINC001289410668   -0.5100
16     C16    -8.5567   -6.9607    3.4331 C.3      1 ZINC001289410668    0.0900
17     N17    -9.7357   -7.3475    4.2119 N.pl3    1 ZINC001289410668   -0.4500
18     C18   -10.9888   -6.8058    4.1117 C.2      1 ZINC001289410668   -0.0500
19     C19   -11.7646   -7.4511    5.0036 C.2      1 ZINC001289410668   -0.0200
20     N20   -11.0059   -8.3619    5.6311 N.2      1 ZINC001289410668   -0.4800
21     C21    -9.7907   -8.3091    5.1585 C.2      1 ZINC001289410668    0.2300
22     C22    -8.6374   -9.1717    5.6022 C.3      1 ZINC001289410668   -0.0100
23     C23    -8.3770   -8.9476    7.0932 C.3      1 ZINC001289410668   -0.1400
24     C24    -8.9784  -10.6433    5.3596 C.3      1 ZINC001289410668   -0.1400
25     C25    -7.1599   -8.5067    0.1683 C.3      1 ZINC001289410668    0.1100
26     C26    -5.9052   -7.9310   -0.5226 C.3      1 ZINC001289410668   -0.1100
27     H27    -5.0150   -8.4894   -0.2328 H        1 ZINC001289410668    0.0900
28     C28    -6.0740   -7.9365   -2.0432 C.3      1 ZINC001289410668   -0.1400
29     H29     1.0039    1.9031    0.0027 H        1 ZINC001289410668    0.0500
30     H30    -0.5459    1.8868   -0.8726 H        1 ZINC001289410668    0.0500
31     H31    -0.5289    1.8773    0.9072 H        1 ZINC001289410668    0.0500
32     H32     0.5123   -0.3556   -0.8948 H        1 ZINC001289410668    0.0600
33     H33     0.5293   -0.3651    0.8851 H        1 ZINC001289410668    0.0600
34     H34    -1.9435   -0.1821    0.9097 H        1 ZINC001289410668    0.0600
35     H35    -1.9605   -0.1726   -0.8702 H        1 ZINC001289410668    0.0600
36     H36    -0.9024   -2.4150   -0.8923 H        1 ZINC001289410668    0.0600
37     H37    -0.8854   -2.4246    0.8875 H        1 ZINC001289410668    0.0600
38     H38    -3.3581   -2.2415    0.9121 H        1 ZINC001289410668    0.0700
39     H39    -3.3751   -2.2320   -0.8677 H        1 ZINC001289410668    0.0700
40     H40    -2.3170   -4.4744   -0.8899 H        1 ZINC001289410668    0.1000
41     H41    -2.3000   -4.4840    0.8900 H        1 ZINC001289410668    0.1000
42     H42    -3.7236   -6.5930    0.0022 H        1 ZINC001289410668    0.4000
43     H43    -5.5465   -7.0166    2.1175 H        1 ZINC001289410668    0.0800
44     H44    -6.7710   -5.7374    1.8539 H        1 ZINC001289410668    0.0800
45     H45    -7.6657   -7.0484    4.0549 H        1 ZINC001289410668    0.1200
46     H46    -8.6654   -5.9295    3.0972 H        1 ZINC001289410668    0.1200
47     H47   -11.2961   -6.0130    3.4458 H        1 ZINC001289410668    0.1700
48     H48   -12.8138   -7.2673    5.1822 H        1 ZINC001289410668    0.1700
49     H49    -7.7458   -8.9068    5.0339 H        1 ZINC001289410668    0.0700
50     H50    -9.2686   -9.2125    7.6615 H        1 ZINC001289410668    0.0700
51     H51    -7.5429   -9.5715    7.4141 H        1 ZINC001289410668    0.0600
52     H52    -8.1341   -7.8992    7.2660 H        1 ZINC001289410668    0.0500
53     H53    -9.8700  -10.9082    5.9280 H        1 ZINC001289410668    0.0700
54     H54    -9.1639  -10.8030    4.2974 H        1 ZINC001289410668    0.0600
55     H55    -8.1443  -11.2673    5.6805 H        1 ZINC001289410668    0.0600
56     H56    -6.9853   -9.5452    0.4493 H        1 ZINC001289410668    0.0800
57     H57    -8.0154   -8.4413   -0.5040 H        1 ZINC001289410668    0.0800
58     H58    -6.9513   -7.3488   -2.3135 H        1 ZINC001289410668    0.0600
59     H59    -5.1888   -7.5029   -2.5086 H        1 ZINC001289410668    0.0600
60     H60    -6.2021   -8.9616   -2.3909 H        1 ZINC001289410668    0.0700
@<TRIPOS>BOND
1     1     2     1
2     1     29    1
3     1     30    1
4     1     31    1
5     2     3     1
6     2     32    1
7     2     33    1
8     3     4     1
9     3     34    1
10    3     35    1
11    4     5     1
12    4     36    1
13    4     37    1
14    5     6     1
15    5     38    1
16    5     39    1
17    6     7     1
18    6     40    1
19    6     41    1
20    7     8     2
21    7     9     am
22    9     10    1
23    9     42    1
24    10    11    1
25    10    26    1
26    10    12    1
27    12    13    1
28    12    43    1
29    12    44    1
30    13    14    am
31    13    25    1
32    14    15    2
33    14    16    1
34    16    17    1
35    16    45    1
36    16    46    1
37    17    21    1
38    17    18    1
39    18    19    2
40    18    47    1
41    19    20    1
42    19    48    1
43    20    21    2
44    21    22    1
45    22    23    1
46    22    24    1
47    22    49    1
48    23    50    1
49    23    51    1
50    23    52    1
51    24    53    1
52    24    54    1
53    24    55    1
54    25    26    1
55    25    56    1
56    25    57    1
57    26    27    1
58    26    28    1
59    28    58    1
60    28    59    1
61    28    60    1
@<TRIPOS>SUBSTRUCTURE
1   ZINC001289410668 1     RESIDUE    1   A     ZIN   1
@<TRIPOS>MOLECULE
ZINC000845755710
44	47	1	0	0
SMALL
USER_CHARGES
@<TRIPOS>ATOM
1      C1     -0.8470    1.6431    1.1147 C.3      1 ZINC000845755710   -0.1700
2      C2     -0.7495    0.1165    1.0828 C.3      1 ZINC000845755710    0.2600
3      C3     -2.1123   -0.4781    0.7222 C.3      1 ZINC000845755710   -0.0900
4      C4     -2.4869   -0.0668   -0.7035 C.3      1 ZINC000845755710   -0.1300
5      C5     -3.8670   -0.6350   -1.0486 C.3      1 ZINC000845755710    0.1100
6      N6     -3.8503   -2.0869   -0.8242 N.am     1 ZINC000845755710   -0.6000
7      C7     -4.2240   -2.9371   -1.8009 C.2      1 ZINC000845755710    0.5900
8      O8     -4.6533   -2.5035   -2.8534 O.2      1 ZINC000845755710   -0.5200
9      C9     -4.1128   -4.3890   -1.5944 C.2      1 ZINC000845755710   -0.2200
10     C10    -4.5598   -5.1034   -0.5262 C.2      1 ZINC000845755710    0.0600
11     O11    -4.2774   -6.4002   -0.6963 O.3      1 ZINC000845755710   -0.1800
12     C12    -3.6389   -6.6146   -1.8655 C.ar     1 ZINC000845755710    0.0500
13     C13    -3.1471   -7.7579   -2.4827 C.ar     1 ZINC000845755710   -0.0900
14     C14    -2.5243   -7.6653   -3.7093 C.ar     1 ZINC000845755710   -0.0800
15     C15    -2.3813   -6.4371   -4.3387 C.ar     1 ZINC000845755710   -0.0400
16     Cl16   -1.5934   -6.3422   -5.8828 Cl       1 ZINC000845755710   -0.0600
17     C17    -2.8640   -5.2910   -3.7409 C.ar     1 ZINC000845755710   -0.0500
18     C18    -3.4986   -5.3748   -2.5063 C.ar     1 ZINC000845755710   -0.0900
19     C19    -3.4179   -2.5944    0.4850 C.3      1 ZINC000845755710    0.1000
20     C20    -2.0428   -2.0042    0.8130 C.3      1 ZINC000845755710   -0.1300
21     O21     0.2237   -0.2849    0.1039 O.3      1 ZINC000845755710   -0.3700
22     C22     1.4471   -0.4752    0.8545 C.3      1 ZINC000845755710    0.0100
23     C23     0.9121   -1.0616    2.1848 C.3      1 ZINC000845755710    0.0200
24     O24    -0.3379   -0.3668    2.3683 O.3      1 ZINC000845755710   -0.3800
25     H25     0.1237    2.0638    1.3771 H        1 ZINC000845755710    0.0600
26     H26    -1.1479    2.0085    0.1328 H        1 ZINC000845755710    0.0800
27     H27    -1.5863    1.9445    1.8568 H        1 ZINC000845755710    0.0800
28     H28    -2.8657   -0.1069    1.4169 H        1 ZINC000845755710    0.0900
29     H29    -2.5133    1.0207   -0.7733 H        1 ZINC000845755710    0.0800
30     H30    -1.7471   -0.4587   -1.4015 H        1 ZINC000845755710    0.0800
31     H31    -4.6215   -0.1753   -0.4103 H        1 ZINC000845755710    0.0700
32     H32    -4.0957   -0.4295   -2.0944 H        1 ZINC000845755710    0.1000
33     H33    -5.0667   -4.6860    0.3312 H        1 ZINC000845755710    0.2200
34     H34    -3.2522   -8.7191   -2.0016 H        1 ZINC000845755710    0.1500
35     H35    -2.1438   -8.5573   -4.1846 H        1 ZINC000845755710    0.1500
36     H36    -2.7528   -4.3348   -4.2306 H        1 ZINC000845755710    0.1400
37     H37    -4.1357   -2.2945    1.2485 H        1 ZINC000845755710    0.0800
38     H38    -3.3502   -3.6818    0.4513 H        1 ZINC000845755710    0.0900
39     H39    -1.3072   -2.3780    0.1007 H        1 ZINC000845755710    0.0700
40     H40    -1.7531   -2.2958    1.8225 H        1 ZINC000845755710    0.0800
41     H41     2.1064   -1.1836    0.3529 H        1 ZINC000845755710    0.1100
42     H42     1.9536    0.4752    1.0227 H        1 ZINC000845755710    0.0800
43     H43     0.7464   -2.1351    2.0935 H        1 ZINC000845755710    0.0800
44     H44     1.5972   -0.8449    3.0044 H        1 ZINC000845755710    0.1000
@<TRIPOS>BOND
1     1     2     1
2     1     25    1
3     1     26    1
4     1     27    1
5     2     24    1
6     2     3     1
7     2     21    1
8     3     20    1
9     3     4     1
10    3     28    1
11    4     5     1
12    4     29    1
13    4     30    1
14    5     6     1
15    5     31    1
16    5     32    1
17    6     7     am
18    6     19    1
19    7     8     2
20    7     9     1
21    9     18    1
22    9     10    2
23    10    11    1
24    10    33    1
25    11    12    1
26    12    18    ar
27    12    13    ar
28    13    14    ar
29    13    34    1
30    14    15    ar
31    14    35    1
32    15    16    1
33    15    17    ar
34    17    18    ar
35    17    36    1
36    19    20    1
37    19    37    1
38    19    38    1
39    20    39    1
40    20    40    1
41    21    22    1
42    22    23    1
43    22    41    1
44    22    42    1
45    23    24    1
46    23    43    1
47    23    44    1
@<TRIPOS>SUBSTRUCTURE
1   ZINC000845755710 1     RESIDUE    1   A     ZIN   1
@<TRIPOS>MOLECULE
ZINC000797321835
35	37	1	0	0
SMALL
USER_CHARGES
@<TRIPOS>ATOM
1      C1     -0.0164    1.4572    0.0075 C.3      1 ZINC000797321835    0.1000
2      N2      0.0044   -0.0076    0.0007 N.am     1 ZINC000797321835   -0.6000
3      C3      0.0111   -0.7609   -1.1126 C.2      1 ZINC000797321835    0.5200
4      O4     -0.0057   -0.3270   -2.2450 O.2      1 ZINC000797321835   -0.5200
5      C5      0.0433   -2.2286   -0.7475 C.3      1 ZINC000797321835   -0.1500
6      C6      0.4743   -2.2406    0.7375 C.3      1 ZINC000797321835   -0.1200
7      C7      0.0267   -0.8411    1.2085 C.3      1 ZINC000797321835    0.1200
8      H8     -0.9714   -0.8908    1.6436 H        1 ZINC000797321835    0.1100
9      C9      1.0060   -0.2911    2.2133 C.2      1 ZINC000797321835    0.4900
10     O10     1.8439    0.5138    1.8657 O.2      1 ZINC000797321835   -0.4400
11     N11     0.9506   -0.6939    3.4983 N.am     1 ZINC000797321835   -0.6500
12     C12     1.9208   -0.2676    4.4051 C.ar     1 ZINC000797321835    0.3000
13     C13     1.9256   -0.7669    5.7081 C.ar     1 ZINC000797321835   -0.1400
14     C14     2.9063   -0.3168    6.5732 C.ar     1 ZINC000797321835   -0.0800
15     C15     3.8344    0.6133    6.0866 C.ar     1 ZINC000797321835    0.1100
16     C16     4.9022    1.1259    6.9686 C.2      1 ZINC000797321835   -0.1400
17     C17     5.8432    2.0234    6.6113 C.2      1 ZINC000797321835   -0.0900
18     C18     6.7368    2.3502    7.6094 C.2      1 ZINC000797321835   -0.0900
19     C19     6.5343    1.7286    8.7765 C.2      1 ZINC000797321835   -0.2000
20     Br20    7.5854    1.9634   10.3309 Br       1 ZINC000797321835    0.0200
21     S21     5.1389    0.6659    8.6496 S.3      1 ZINC000797321835    0.1900
22     N22     3.7502    1.0318    4.8284 N.ar     1 ZINC000797321835   -0.1900
23     N23     2.8410    0.6070    4.0282 N.ar     1 ZINC000797321835   -0.2200
24     H24     1.0060    1.8351    0.0002 H        1 ZINC000797321835    0.0700
25     H25    -0.5431    1.8172   -0.8763 H        1 ZINC000797321835    0.0800
26     H26    -0.5275    1.8092    0.9036 H        1 ZINC000797321835    0.0700
27     H27    -0.9460   -2.6718   -0.8612 H        1 ZINC000797321835    0.1100
28     H28     0.7724   -2.7584   -1.3606 H        1 ZINC000797321835    0.1100
29     H29    -0.0451   -3.0250    1.2881 H        1 ZINC000797321835    0.1100
30     H30     1.5547   -2.3517    0.8292 H        1 ZINC000797321835    0.0900
31     H31     0.2360   -1.2801    3.7925 H        1 ZINC000797321835    0.4200
32     H32     1.1852   -1.4835    6.0316 H        1 ZINC000797321835    0.1600
33     H33     2.9550   -0.6710    7.5923 H        1 ZINC000797321835    0.1500
34     H34     5.8931    2.4522    5.6213 H        1 ZINC000797321835    0.1600
35     H35     7.5408    3.0555    7.4598 H        1 ZINC000797321835    0.1600
@<TRIPOS>BOND
1     1     2     1
2     1     24    1
3     1     25    1
4     1     26    1
5     2     7     1
6     2     3     am
7     3     4     2
8     3     5     1
9     5     6     1
10    5     27    1
11    5     28    1
12    6     7     1
13    6     29    1
14    6     30    1
15    7     8     1
16    7     9     1
17    9     10    2
18    9     11    am
19    11    12    1
20    11    31    1
21    12    23    ar
22    12    13    ar
23    13    14    ar
24    13    32    1
25    14    15    ar
26    14    33    1
27    15    16    1
28    15    22    ar
29    16    21    1
30    16    17    2
31    17    18    1
32    17    34    1
33    18    19    2
34    18    35    1
35    19    20    1
36    19    21    1
37    22    23    ar
@<TRIPOS>SUBSTRUCTURE
1   ZINC000797321835 1     RESIDUE    1   A     ZIN   1
@<TRIPOS>MOLECULE
ZINC001217683559
38	42	1	0	0
SMALL
USER_CHARGES
@<TRIPOS>ATOM
1      Br1     0.0021   -0.0041    0.0020 Br       1 ZINC001217683559    0.0100
2      C2     -0.0236    1.8867    0.0124 C.ar     1 ZINC001217683559   -0.1200
3      C3     -1.2272    2.5732    0.0334 C.ar     1 ZINC001217683559   -0.0500
4      C4     -1.1979    3.9598    0.0403 C.ar     1 ZINC001217683559   -0.1500
5      C5      0.0216    4.6126    0.0261 C.ar     1 ZINC001217683559    0.1200
6      N6      1.1511    3.9356    0.0058 N.ar     1 ZINC001217683559   -0.4400
7      C7      1.1676    2.6097    0.0049 C.ar     1 ZINC001217683559    0.2200
8      C8      2.4658    1.8894   -0.0184 C.2      1 ZINC001217683559    0.2100
9      N9      2.6317    0.5919   -0.0277 N.2      1 ZINC001217683559   -0.3300
10     O10     3.8129    0.3178   -0.0473 O.3      1 ZINC001217683559    0.1000
11     C11     4.5434    1.4439   -0.0527 C.2      1 ZINC001217683559    0.2300
12     C12     6.0177    1.5367   -0.0750 C.2      1 ZINC001217683559   -0.0600
13     C13     6.7745    0.3994   -0.0977 C.2      1 ZINC001217683559    0.1800
14     N14     8.1283    0.4756   -0.1182 N.pl3    1 ZINC001217683559   -0.2900
15     N15     9.1412   -0.4939   -0.1429 N.2      1 ZINC001217683559   -0.3300
16     C16    10.2867    0.1457   -0.1544 C.2      1 ZINC001217683559    0.2800
17     C17    11.6449   -0.5066   -0.1822 C.3      1 ZINC001217683559   -0.0300
18     C18    12.6707    0.2431   -1.0486 C.3      1 ZINC001217683559   -0.1200
19     C19    13.7050   -0.0672    0.0463 C.3      1 ZINC001217683559   -0.1400
20     C20    12.5242   -0.1503    1.0281 C.3      1 ZINC001217683559   -0.1200
21     N21    10.0675    1.4531   -0.1388 N.2      1 ZINC001217683559   -0.5300
22     C22     8.7608    1.6876   -0.1165 C.2      1 ZINC001217683559    0.2900
23     C23     8.0043    2.8755   -0.0937 C.2      1 ZINC001217683559   -0.1000
24     C24     6.6478    2.8035   -0.0787 C.2      1 ZINC001217683559   -0.0200
25     N25     3.6917    2.4527   -0.0398 N.2      1 ZINC001217683559   -0.4300
26     H26    -2.1666    2.0405    0.0438 H        1 ZINC001217683559    0.1600
27     H27    -2.1184    4.5245    0.0562 H        1 ZINC001217683559    0.1500
28     H28     0.0478    5.6923    0.0314 H        1 ZINC001217683559    0.1800
29     H29     6.2914   -0.5665   -0.0990 H        1 ZINC001217683559    0.1900
30     H30    11.5968   -1.5760   -0.3871 H        1 ZINC001217683559    0.1200
31     H31    12.8807   -0.2473   -1.9992 H        1 ZINC001217683559    0.0700
32     H32    12.4561    1.3061   -1.1579 H        1 ZINC001217683559    0.1000
33     H33    14.2212   -1.0165   -0.0971 H        1 ZINC001217683559    0.0800
34     H34    14.3856    0.7592    0.2508 H        1 ZINC001217683559    0.0800
35     H35    12.2696    0.8053    1.4866 H        1 ZINC001217683559    0.0900
36     H36    12.6160   -0.9581    1.7541 H        1 ZINC001217683559    0.0700
37     H37     8.4985    3.8358   -0.0920 H        1 ZINC001217683559    0.1700
38     H38     6.0551    3.7061   -0.0611 H        1 ZINC001217683559    0.1700
@<TRIPOS>BOND
1     1     2     1
2     2     7     ar
3     2     3     ar
4     3     4     ar
5     3     26    1
6     4     5     ar
7     4     27    1
8     5     6     ar
9     5     28    1
10    6     7     ar
11    7     8     1
12    8     25    1
13    8     9     2
14    9     10    1
15    10    11    1
16    11    12    1
17    11    25    2
18    12    24    1
19    12    13    2
20    13    14    1
21    13    29    1
22    14    22    1
23    14    15    1
24    15    16    2
25    16    17    1
26    16    21    1
27    17    20    1
28    17    18    1
29    17    30    1
30    18    19    1
31    18    31    1
32    18    32    1
33    19    20    1
34    19    33    1
35    19    34    1
36    20    35    1
37    20    36    1
38    21    22    2
39    22    23    1
40    23    24    2
41    23    37    1
42    24    38    1
@<TRIPOS>SUBSTRUCTURE
1   ZINC001217683559 1     RESIDUE    1   A     ZIN   1
@<TRIPOS>MOLECULE
ZINC001135312623
40	42	1	0	0
SMALL
USER_CHARGES
@<TRIPOS>ATOM
1      C1     -1.3688    1.2693    0.0970 C.3      1 ZINC001135312623   -0.1300
2      C2     -0.6336   -0.0257   -0.1340 C.ar     1 ZINC001135312623   -0.0600
3      C3     -0.6167   -0.5961   -1.3914 C.ar     1 ZINC001135312623   -0.1000
4      C4      0.0574   -1.7849   -1.6042 C.ar     1 ZINC001135312623   -0.0300
5      C5      0.0737   -2.4046   -2.9778 C.3      1 ZINC001135312623   -0.1300
6      C6      0.7169   -2.4057   -0.5595 C.ar     1 ZINC001135312623   -0.0200
7      N7      1.4371   -3.6778   -0.7917 N.pl3    1 ZINC001135312623    0.0200
8      O8      1.4571   -4.5333    0.0751 O.2      1 ZINC001135312623   -0.1500
9      O9      2.0097   -3.8692   -1.8495 O.2      1 ZINC001135312623   -0.1500
10     C10     0.7047   -1.8399    0.7005 C.ar     1 ZINC001135312623   -0.0700
11     C11     0.0328   -0.6439    0.9165 C.ar     1 ZINC001135312623    0.1500
12     N12     0.0185   -0.0683    2.1909 N.am     1 ZINC001135312623   -0.6600
13     C13     0.1900   -0.8415    3.2815 C.2      1 ZINC001135312623    0.5600
14     O14     0.2534   -2.0503    3.1659 O.2      1 ZINC001135312623   -0.5000
15     C15     0.3008   -0.2211    4.6157 C.ar     1 ZINC001135312623   -0.1600
16     C16     0.2223    1.1676    4.7505 C.ar     1 ZINC001135312623   -0.0400
17     C17     0.3265    1.7463    5.9964 C.ar     1 ZINC001135312623   -0.1500
18     C18     0.5091    0.9479    7.1182 C.ar     1 ZINC001135312623    0.2000
19     N19     0.6203    1.5135    8.3886 N.am     1 ZINC001135312623   -0.6700
20     C20     1.1055    0.7759    9.4074 C.2      1 ZINC001135312623    0.6600
21     O21     1.1787    1.2621   10.5186 O.2      1 ZINC001135312623   -0.4900
22     O22     1.5093   -0.4918    9.2090 O.3      1 ZINC001135312623   -0.3400
23     C23     0.7827   -1.2771    8.2243 C.3      1 ZINC001135312623    0.1100
24     C24     0.5861   -0.4378    6.9865 C.ar     1 ZINC001135312623   -0.1800
25     C25     0.4788   -1.0225    5.7484 C.ar     1 ZINC001135312623    0.0000
26     H26    -0.6937    2.1068   -0.0788 H        1 ZINC001135312623    0.0900
27     H27    -2.2144    1.3343   -0.5878 H        1 ZINC001135312623    0.0800
28     H28    -1.7302    1.3036    1.1248 H        1 ZINC001135312623    0.0700
29     H29    -1.1308   -0.1137   -2.2095 H        1 ZINC001135312623    0.1500
30     H30     0.8811   -1.9665   -3.5645 H        1 ZINC001135312623    0.0900
31     H31     0.2305   -3.4796   -2.8895 H        1 ZINC001135312623    0.0800
32     H32    -0.8789   -2.2158   -3.4728 H        1 ZINC001135312623    0.0800
33     H33     1.2200   -2.3254    1.5161 H        1 ZINC001135312623    0.1700
34     H34    -0.1149    0.8873    2.2901 H        1 ZINC001135312623    0.4200
35     H35     0.0802    1.7876    3.8776 H        1 ZINC001135312623    0.1400
36     H36     0.2665    2.8195    6.1007 H        1 ZINC001135312623    0.1500
37     H37     0.3501    2.4330    8.5380 H        1 ZINC001135312623    0.4300
38     H38     1.3556   -2.1699    7.9736 H        1 ZINC001135312623    0.1300
39     H39    -0.1877   -1.5643    8.6294 H        1 ZINC001135312623    0.1000
40     H40     0.5355   -2.0965    5.6493 H        1 ZINC001135312623    0.1500
@<TRIPOS>BOND
1     1     2     1
2     1     26    1
3     1     27    1
4     1     28    1
5     2     11    ar
6     2     3     ar
7     3     4     ar
8     3     29    1
9     4     5     1
10    4     6     ar
11    5     30    1
12    5     31    1
13    5     32    1
14    6     7     1
15    6     10    ar
16    7     8     2
17    7     9     2
18    10    11    ar
19    10    33    1
20    11    12    1
21    12    13    am
22    12    34    1
23    13    14    2
24    13    15    1
25    15    25    ar
26    15    16    ar
27    16    17    ar
28    16    35    1
29    17    18    ar
30    17    36    1
31    18    24    ar
32    18    19    1
33    19    20    am
34    19    37    1
35    20    21    2
36    20    22    1
37    22    23    1
38    23    24    1
39    23    38    1
40    23    39    1
41    24    25    ar
42    25    40    1
@<TRIPOS>SUBSTRUCTURE
1   ZINC001135312623 1     RESIDUE    1   A     ZIN   1
@<TRIPOS>MOLECULE
ZINC000437443367
51	52	1	0	0
SMALL
USER_CHARGES
@<TRIPOS>ATOM
1      C1      0.6748    1.5684   -6.9755 C.3      1 ZINC000437443367   -0.1200
2      C2      1.0087    0.0989   -6.9757 C.ar     1 ZINC000437443367   -0.1000
3      C3      0.7868   -0.6591   -5.8433 C.ar     1 ZINC000437443367   -0.1200
4      C4      1.0949   -2.0139   -5.8441 C.ar     1 ZINC000437443367    0.1400
5      N5      0.8706   -2.7836   -4.6987 N.am     1 ZINC000437443367   -0.6400
6      C6      0.5956   -4.0980   -4.8133 C.2      1 ZINC000437443367    0.5000
7      O7      0.6352   -4.6338   -5.9017 O.2      1 ZINC000437443367   -0.4800
8      C8      0.2422   -4.8954   -3.6009 C.2      1 ZINC000437443367    0.5100
9      O9      0.2789   -4.3792   -2.5032 O.2      1 ZINC000437443367   -0.5200
10     N10    -0.1175   -6.1883   -3.7260 N.am     1 ZINC000437443367   -0.5700
11     C11    -0.2465   -6.7873   -5.0567 C.3      1 ZINC000437443367    0.0900
12     C12     1.1413   -7.1492   -5.5898 C.3      1 ZINC000437443367   -0.1200
13     C13     1.0203   -7.6442   -7.0324 C.3      1 ZINC000437443367   -0.0900
14     C14     0.5294   -6.5019   -7.9241 C.3      1 ZINC000437443367   -0.1400
15     C15     2.3879   -8.1231   -7.5236 C.3      1 ZINC000437443367   -0.1500
16     C16    -0.3794   -6.9945   -2.5312 C.3      1 ZINC000437443367    0.1300
17     C17    -1.7056   -7.7656   -2.6944 C.3      1 ZINC000437443367   -0.1300
18     C18    -1.2729   -9.1605   -3.2103 C.3      1 ZINC000437443367   -0.1300
19     C19     0.0314   -9.4281   -2.4189 C.3      1 ZINC000437443367   -0.1200
20     C20     0.7250   -8.0516   -2.3561 C.3      1 ZINC000437443367   -0.1400
21     C21     1.6256   -2.6026   -6.9847 C.ar     1 ZINC000437443367   -0.1100
22     C22     1.8459   -1.8404   -8.1152 C.ar     1 ZINC000437443367   -0.1300
23     C23     1.5328   -0.4915   -8.1139 C.ar     1 ZINC000437443367    0.0800
24     F24     1.7491    0.2522   -9.2208 F        1 ZINC000437443367   -0.1400
25     H25    -0.3562    1.7068   -7.3010 H        1 ZINC000437443367    0.0800
26     H26     0.7945    1.9680   -5.9685 H        1 ZINC000437443367    0.0700
27     H27     1.3444    2.0933   -7.6567 H        1 ZINC000437443367    0.0700
28     H28     0.3744   -0.1993   -4.9574 H        1 ZINC000437443367    0.1400
29     H29     0.9130   -2.3716   -3.8216 H        1 ZINC000437443367    0.4200
30     H30    -0.8571   -7.6878   -4.9921 H        1 ZINC000437443367    0.0900
31     H31    -0.7204   -6.0745   -5.7316 H        1 ZINC000437443367    0.1000
32     H32     1.7828   -6.2685   -5.5604 H        1 ZINC000437443367    0.0700
33     H33     1.5745   -7.9351   -4.9711 H        1 ZINC000437443367    0.0600
34     H34     0.3095   -8.4695   -7.0749 H        1 ZINC000437443367    0.0600
35     H35     1.2402   -5.6767   -7.8815 H        1 ZINC000437443367    0.0600
36     H36     0.4432   -6.8546   -8.9518 H        1 ZINC000437443367    0.0400
37     H37    -0.4449   -6.1608   -7.5741 H        1 ZINC000437443367    0.0600
38     H38     2.7376   -8.9369   -6.8884 H        1 ZINC000437443367    0.0500
39     H39     2.3017   -8.4758   -8.5514 H        1 ZINC000437443367    0.0500
40     H40     3.0986   -7.2979   -7.4811 H        1 ZINC000437443367    0.0500
41     H41    -0.4255   -6.3532   -1.6510 H        1 ZINC000437443367    0.1000
42     H42    -2.2154   -7.8550   -1.7352 H        1 ZINC000437443367    0.0800
43     H43    -2.3470   -7.2712   -3.4239 H        1 ZINC000437443367    0.0700
44     H44    -2.0280   -9.9106   -2.9753 H        1 ZINC000437443367    0.0700
45     H45    -1.0756   -9.1319   -4.2819 H        1 ZINC000437443367    0.0700
46     H46    -0.1979   -9.7859   -1.4152 H        1 ZINC000437443367    0.0700
47     H47     0.6576  -10.1470   -2.9474 H        1 ZINC000437443367    0.0700
48     H48     1.4559   -7.9647   -3.1600 H        1 ZINC000437443367    0.0800
49     H49     1.2144   -7.9238   -1.3905 H        1 ZINC000437443367    0.0700
50     H50     1.8661   -3.6554   -6.9875 H        1 ZINC000437443367    0.1600
51     H51     2.2585   -2.2977   -9.0024 H        1 ZINC000437443367    0.1400
@<TRIPOS>BOND
1     1     2     1
2     1     25    1
3     1     26    1
4     1     27    1
5     2     23    ar
6     2     3     ar
7     3     4     ar
8     3     28    1
9     4     5     1
10    4     21    ar
11    5     6     am
12    5     29    1
13    6     7     2
14    6     8     1
15    8     9     2
16    8     10    am
17    10    11    1
18    10    16    1
19    11    12    1
20    11    30    1
21    11    31    1
22    12    13    1
23    12    32    1
24    12    33    1
25    13    14    1
26    13    15    1
27    13    34    1
28    14    35    1
29    14    36    1
30    14    37    1
31    15    38    1
32    15    39    1
33    15    40    1
34    16    20    1
35    16    17    1
36    16    41    1
37    17    18    1
38    17    42    1
39    17    43    1
40    18    19    1
41    18    44    1
42    18    45    1
43    19    20    1
44    19    46    1
45    19    47    1
46    20    48    1
47    20    49    1
48    21    22    ar
49    21    50    1
50    22    23    ar
51    22    51    1
52    23    24    1
@<TRIPOS>SUBSTRUCTURE
1   ZINC000437443367 1     RESIDUE    1   A     ZIN   1
@<TRIPOS>MOLECULE
ZINC000609484313
57	58	1	0	0
SMALL
USER_CHARGES
@<TRIPOS>ATOM
1      C1     -0.3874    0.6807    0.4536 C.3      1 ZINC000609484313   -0.1500
2      C2     -0.4736   -0.8384    0.2930 C.3      1 ZINC000609484313   -0.1300
3      C3      0.3106   -1.2652   -0.9495 C.3      1 ZINC000609484313   -0.1100
4      C4      0.2244   -2.7843   -1.1101 C.3      1 ZINC000609484313   -0.1100
5      C5      1.0087   -3.2112   -2.3525 C.3      1 ZINC000609484313    0.0800
6      H6      2.0307   -2.8388   -2.2827 H        1 ZINC000609484313    0.1200
7      C7      1.0271   -4.7153   -2.4428 C.2      1 ZINC000609484313    0.4900
8      O8      0.5519   -5.2706   -3.4106 O.2      1 ZINC000609484313   -0.5000
9      N9      1.5716   -5.4435   -1.4479 N.am     1 ZINC000609484313   -0.6300
10     C10     1.5886   -6.8359   -1.5315 C.2      1 ZINC000609484313    0.2400
11     N11     2.0735   -7.6692   -0.6487 N.2      1 ZINC000609484313   -0.3900
12     O12     1.9416   -8.8173   -1.0044 O.3      1 ZINC000609484313    0.1000
13     C13     1.3375   -8.9011   -2.1986 C.2      1 ZINC000609484313   -0.0200
14     C14     1.0067  -10.1625   -2.9539 C.3      1 ZINC000609484313   -0.0800
15     C15     1.0771   -7.6329   -2.5900 C.2      1 ZINC000609484313   -0.2300
16     N16     0.3663   -2.6565   -3.5516 N.3      1 ZINC000609484313   -0.5000
17     C17    -1.0430   -3.0652   -3.6309 C.3      1 ZINC000609484313    0.0400
18     C18    -1.6955   -2.4041   -4.8472 C.3      1 ZINC000609484313    0.0500
19     N19    -0.9677   -2.7943   -6.0628 N.3      1 ZINC000609484313   -0.5100
20     C20    -1.6101   -2.2396   -7.2619 C.3      1 ZINC000609484313    0.1800
21     H21    -2.6714   -2.4880   -7.2534 H        1 ZINC000609484313    0.1200
22     C22    -1.4486   -0.7765   -7.2727 C.1      1 ZINC000609484313    0.1700
23     N23    -1.3240    0.3526   -7.2810 N.1      1 ZINC000609484313   -0.4200
24     C24    -0.9572   -2.8340   -8.5114 C.3      1 ZINC000609484313   -0.0800
25     C25    -1.0383   -4.3607   -8.4520 C.3      1 ZINC000609484313   -0.1400
26     C26    -1.6901   -2.3325   -9.7574 C.3      1 ZINC000609484313   -0.1500
27     C27     0.4416   -2.3855   -5.9835 C.3      1 ZINC000609484313    0.0500
28     C28     1.0941   -3.0467   -4.7672 C.3      1 ZINC000609484313    0.0400
29     H29     0.6561    0.9757    0.5636 H        1 ZINC000609484313    0.0500
30     H30    -0.8107    1.1638   -0.4270 H        1 ZINC000609484313    0.0500
31     H31    -0.9461    0.9847    1.3388 H        1 ZINC000609484313    0.0500
32     H32    -0.0503   -1.3215    1.1736 H        1 ZINC000609484313    0.0600
33     H33    -1.5172   -1.1335    0.1830 H        1 ZINC000609484313    0.0600
34     H34    -0.1127   -0.7821   -1.8301 H        1 ZINC000609484313    0.0800
35     H35     1.3542   -0.9702   -0.8395 H        1 ZINC000609484313    0.0600
36     H36     0.6477   -3.2674   -0.2295 H        1 ZINC000609484313    0.0700
37     H37    -0.8191   -3.0794   -1.2200 H        1 ZINC000609484313    0.0800
38     H38     1.9517   -4.9994   -0.6739 H        1 ZINC000609484313    0.4200
39     H39     1.3366  -11.0275   -2.3786 H        1 ZINC000609484313    0.0800
40     H40    -0.0704  -10.2199   -3.1111 H        1 ZINC000609484313    0.0900
41     H41     1.5146  -10.1523   -3.9183 H        1 ZINC000609484313    0.0900
42     H42     0.5980   -7.3026   -3.4997 H        1 ZINC000609484313    0.1900
43     H43    -1.1022   -4.1490   -3.7306 H        1 ZINC000609484313    0.0800
44     H44    -1.5634   -2.7541   -2.7250 H        1 ZINC000609484313    0.0800
45     H45    -2.7332   -2.7287   -4.9246 H        1 ZINC000609484313    0.0900
46     H46    -1.6605   -1.3205   -4.7345 H        1 ZINC000609484313    0.0400
47     H47     0.0877   -2.5271   -8.5563 H        1 ZINC000609484313    0.0800
48     H48    -2.0833   -4.6676   -8.4071 H        1 ZINC000609484313    0.0600
49     H49    -0.5732   -4.7842   -9.3422 H        1 ZINC000609484313    0.0500
50     H50    -0.5162   -4.7180   -7.5644 H        1 ZINC000609484313    0.0700
51     H51    -1.2859   -2.8274  -10.6404 H        1 ZINC000609484313    0.0700
52     H52    -2.7529   -2.5577   -9.6691 H        1 ZINC000609484313    0.0600
53     H53    -1.5535   -1.2551   -9.8502 H        1 ZINC000609484313    0.0500
54     H54     0.9620   -2.6966   -6.8894 H        1 ZINC000609484313    0.0900
55     H55     0.5008   -1.3017   -5.8838 H        1 ZINC000609484313    0.0400
56     H56     2.1317   -2.7221   -4.6898 H        1 ZINC000609484313    0.0800
57     H57     1.0591   -4.1303   -4.8799 H        1 ZINC000609484313    0.0800
@<TRIPOS>BOND
1     1     2     1
2     1     29    1
3     1     30    1
4     1     31    1
5     2     3     1
6     2     32    1
7     2     33    1
8     3     4     1
9     3     34    1
10    3     35    1
11    4     5     1
12    4     36    1
13    4     37    1
14    5     6     1
15    5     7     1
16    5     16    1
17    7     8     2
18    7     9     am
19    9     10    1
20    9     38    1
21    10    15    1
22    10    11    2
23    11    12    1
24    12    13    1
25    13    14    1
26    13    15    2
27    14    39    1
28    14    40    1
29    14    41    1
30    15    42    1
31    16    28    1
32    16    17    1
33    17    18    1
34    17    43    1
35    17    44    1
36    18    19    1
37    18    45    1
38    18    46    1
39    19    20    1
40    19    27    1
41    20    21    1
42    20    22    1
43    20    24    1
44    22    23    3
45    24    25    1
46    24    26    1
47    24    47    1
48    25    48    1
49    25    49    1
50    25    50    1
51    26    51    1
52    26    52    1
53    26    53    1
54    27    28    1
55    27    54    1
56    27    55    1
57    28    56    1
58    28    57    1
@<TRIPOS>SUBSTRUCTURE
1   ZINC000609484313 1     RESIDUE    1   A     ZIN   1
@<TRIPOS>MOLECULE
ZINC000603906271
54	56	1	0	0
SMALL
USER_CHARGES
@<TRIPOS>ATOM
1      C1     -0.0036    1.5318    0.0129 C.3      1 ZINC000603906271   -0.1600
2      C2      0.0059    0.0019    0.0021 C.3      1 ZINC000603906271    0.1300
3      H3     -1.0195   -0.3679    0.0082 H        1 ZINC000603906271    0.1200
4      N4      0.6893   -0.4737   -1.2034 N.am     1 ZINC000603906271   -0.7100
5      C5      0.0079   -0.5984   -2.3595 C.2      1 ZINC000603906271    0.5700
6      O6     -1.1737   -0.3164   -2.4020 O.2      1 ZINC000603906271   -0.5300
7      C7      0.6975   -1.0784   -3.5760 C.ar     1 ZINC000603906271   -0.1400
8      C8      2.0528   -1.4086   -3.5291 C.ar     1 ZINC000603906271   -0.0800
9      C9      2.6903   -1.8563   -4.6677 C.ar     1 ZINC000603906271   -0.1200
10     C10     1.9892   -1.9778   -5.8544 C.ar     1 ZINC000603906271   -0.0400
11     C11     2.6922   -2.4670   -7.0943 C.3      1 ZINC000603906271   -0.0400
12     C12     3.2476   -3.8707   -6.8454 C.3      1 ZINC000603906271   -0.1400
13     C13     1.7011   -2.5098   -8.2591 C.3      1 ZINC000603906271   -0.1500
14     C14     3.8416   -1.5172   -7.4373 C.3      1 ZINC000603906271   -0.1400
15     C15     0.6454   -1.6525   -5.9075 C.ar     1 ZINC000603906271   -0.1300
16     C16    -0.0052   -1.2087   -4.7748 C.ar     1 ZINC000603906271   -0.0500
17     C17     0.7298   -0.5046    1.2229 C.2      1 ZINC000603906271    0.5100
18     O18     1.7193   -1.1950    1.0983 O.2      1 ZINC000603906271   -0.5100
19     N19     0.2778   -0.1906    2.4531 N.am     1 ZINC000603906271   -0.6700
20     C20     0.8914   -0.7388    3.5850 C.ar     1 ZINC000603906271    0.1300
21     C21     0.1287   -1.0649    4.6995 C.ar     1 ZINC000603906271   -0.1200
22     C22     0.7313   -1.6066    5.8193 C.ar     1 ZINC000603906271   -0.1000
23     C23     2.0940   -1.8261    5.8368 C.ar     1 ZINC000603906271   -0.0900
24     C24     2.8670   -1.5014    4.7233 C.ar     1 ZINC000603906271    0.0000
25     C25     4.3323   -1.7363    4.7407 C.2      1 ZINC000603906271    0.2700
26     N26     5.1635   -1.4668    3.7580 N.2      1 ZINC000603906271   -0.3000
27     N27     6.4432   -1.8438    4.1966 N.pl3    1 ZINC000603906271   -0.4800
28     C28     6.2934   -2.3264    5.4433 C.2      1 ZINC000603906271    0.2700
29     N29     5.0283   -2.2528    5.7624 N.2      1 ZINC000603906271   -0.5300
30     C30     2.2602   -0.9621    3.5926 C.ar     1 ZINC000603906271   -0.0800
31     H31     1.0217    1.9016    0.0068 H        1 ZINC000603906271    0.0700
32     H32    -0.5273    1.8982   -0.8701 H        1 ZINC000603906271    0.0800
33     H33    -0.5121    1.8856    0.9098 H        1 ZINC000603906271    0.0700
34     H34     1.6322   -0.6988   -1.1694 H        1 ZINC000603906271    0.4100
35     H35     2.6014   -1.3136   -2.6037 H        1 ZINC000603906271    0.1300
36     H36     3.7390   -2.1122   -4.6329 H        1 ZINC000603906271    0.1300
37     H37     2.4288   -4.5474   -6.6011 H        1 ZINC000603906271    0.0600
38     H38     3.7561   -4.2246   -7.7423 H        1 ZINC000603906271    0.0600
39     H39     3.9537   -3.8402   -6.0156 H        1 ZINC000603906271    0.0600
40     H40     1.3054   -1.5098   -8.4365 H        1 ZINC000603906271    0.0600
41     H41     2.2096   -2.8637   -9.1560 H        1 ZINC000603906271    0.0600
42     H42     0.8823   -3.1865   -8.0148 H        1 ZINC000603906271    0.0600
43     H43     4.5476   -1.4867   -6.6074 H        1 ZINC000603906271    0.0600
44     H44     4.3500   -1.8710   -8.3341 H        1 ZINC000603906271    0.0600
45     H45     3.4459   -0.5171   -7.6146 H        1 ZINC000603906271    0.0600
46     H46     0.1038   -1.7499   -6.8368 H        1 ZINC000603906271    0.1400
47     H47    -1.0543   -0.9555   -4.8175 H        1 ZINC000603906271    0.1400
48     H48    -0.4728    0.4155    2.5539 H        1 ZINC000603906271    0.4200
49     H49    -0.9377   -0.8945    4.6910 H        1 ZINC000603906271    0.1300
50     H50     0.1342   -1.8585    6.6833 H        1 ZINC000603906271    0.1400
51     H51     2.5615   -2.2491    6.7137 H        1 ZINC000603906271    0.1400
52     H52     7.2722   -1.7708    3.6983 H        1 ZINC000603906271    0.4400
53     H53     7.0839   -2.7053    6.0742 H        1 ZINC000603906271    0.2300
54     H54     2.8549   -0.7090    2.7274 H        1 ZINC000603906271    0.1500
@<TRIPOS>BOND
1     1     2     1
2     1     31    1
3     1     32    1
4     1     33    1
5     2     3     1
6     2     4     1
7     2     17    1
8     4     5     am
9     4     34    1
10    5     6     2
11    5     7     1
12    7     16    ar
13    7     8     ar
14    8     9     ar
15    8     35    1
16    9     10    ar
17    9     36    1
18    10    11    1
19    10    15    ar
20    11    12    1
21    11    13    1
22    11    14    1
23    12    37    1
24    12    38    1
25    12    39    1
26    13    40    1
27    13    41    1
28    13    42    1
29    14    43    1
30    14    44    1
31    14    45    1
32    15    16    ar
33    15    46    1
34    16    47    1
35    17    18    2
36    17    19    am
37    19    20    1
38    19    48    1
39    20    30    ar
40    20    21    ar
41    21    22    ar
42    21    49    1
43    22    23    ar
44    22    50    1
45    23    24    ar
46    23    51    1
47    24    25    1
48    24    30    ar
49    25    29    1
50    25    26    2
51    26    27    1
52    27    28    1
53    27    52    1
54    28    29    2
55    28    53    1
56    30    54    1
@<TRIPOS>SUBSTRUCTURE
1   ZINC000603906271 1     RESIDUE    1   A     ZIN   1
@<TRIPOS>MOLECULE
ZINC001408567397
52	53	1	0	0
SMALL
USER_CHARGES
@<TRIPOS>ATOM
1      C1     -0.0184    1.5028    0.0103 C.3      1 ZINC001408567397   -0.0800
2      C2      0.0021   -0.0041    0.0020 C.2      1 ZINC001408567397    0.0900
3      N3      0.0081   -0.7654   -1.0620 N.2      1 ZINC001408567397   -0.2900
4      N4      0.0285   -2.1021   -0.6436 N.pl3    1 ZINC001408567397   -0.4700
5      C5      0.0344   -2.1150    0.7058 C.2      1 ZINC001408567397    0.1100
6      C6      0.0552   -3.3404    1.5826 C.3      1 ZINC001408567397   -0.1000
7      C7      0.0240   -0.8302    1.1305 C.2      1 ZINC001408567397   -0.2200
8      C8      0.0266   -0.3708    2.5657 C.3      1 ZINC001408567397   -0.0600
9      C9      1.4482   -0.2038    3.0371 C.2      1 ZINC001408567397    0.5100
10     O10     2.3686   -0.4351    2.2820 O.2      1 ZINC001408567397   -0.5300
11     N11     1.6968    0.2026    4.2979 N.am     1 ZINC001408567397   -0.7300
12     C12     3.0788    0.3649    4.7562 C.3      1 ZINC001408567397    0.1100
13     C13     3.0814    0.8313    6.2133 C.3      1 ZINC001408567397    0.1000
14     N14     4.4634    0.9936    6.6716 N.am     1 ZINC001408567397   -0.6200
15     C15     5.1407    2.2831    6.5140 C.3      1 ZINC001408567397    0.0700
16     C16     5.1117   -0.0433    7.2382 C.2      1 ZINC001408567397    0.5100
17     O17     4.5510   -1.1107    7.3686 O.2      1 ZINC001408567397   -0.5300
18     C18     6.5333    0.1237    7.7095 C.3      1 ZINC001408567397   -0.1300
19     C19     7.0300   -1.1935    8.3088 C.3      1 ZINC001408567397   -0.1100
20     H20     6.9054   -1.9949    7.5805 H        1 ZINC001408567397    0.0900
21     C21     8.5110   -1.0622    8.6770 C.3      1 ZINC001408567397   -0.1200
22     C22     8.9763   -2.3589    9.3465 C.3      1 ZINC001408567397   -0.1600
23     C23     8.0965   -2.6377   10.5679 C.3      1 ZINC001408567397    0.0600
24     O24     6.7292   -2.7174   10.1602 O.3      1 ZINC001408567397   -0.3800
25     C25     6.2243   -1.5181    9.5694 C.3      1 ZINC001408567397    0.0600
26     H26     1.0042    1.8801    0.0026 H        1 ZINC001408567397    0.0800
27     H27    -0.5455    1.8639   -0.8728 H        1 ZINC001408567397    0.0700
28     H28    -0.5286    1.8543    0.9071 H        1 ZINC001408567397    0.0800
29     H29     0.0368   -2.8810   -1.2218 H        1 ZINC001408567397    0.4400
30     H30     1.0877   -3.6219    1.7892 H        1 ZINC001408567397    0.0800
31     H31    -0.4573   -3.1251    2.5202 H        1 ZINC001408567397    0.0900
32     H32    -0.4499   -4.1607    1.0725 H        1 ZINC001408567397    0.0700
33     H33    -0.4961    0.5825    2.6430 H        1 ZINC001408567397    0.1000
34     H34    -0.4769   -1.1126    3.1856 H        1 ZINC001408567397    0.1000
35     H35     0.9607    0.3875    4.9019 H        1 ZINC001408567397    0.4000
36     H36     3.6016   -0.5884    4.6789 H        1 ZINC001408567397    0.0700
37     H37     3.5824    1.1067    4.1363 H        1 ZINC001408567397    0.0700
38     H38     2.5587    1.7846    6.2906 H        1 ZINC001408567397    0.0800
39     H39     2.5779    0.0895    6.8332 H        1 ZINC001408567397    0.0900
40     H40     4.9679    2.8949    7.3993 H        1 ZINC001408567397    0.0600
41     H41     6.2110    2.1185    6.3894 H        1 ZINC001408567397    0.0800
42     H42     4.7473    2.7952    5.6359 H        1 ZINC001408567397    0.0800
43     H43     7.1657    0.4004    6.8660 H        1 ZINC001408567397    0.1000
44     H44     6.5753    0.9062    8.4672 H        1 ZINC001408567397    0.1000
45     H45     9.0969   -0.8871    7.7747 H        1 ZINC001408567397    0.0700
46     H46     8.6428   -0.2283    9.3664 H        1 ZINC001408567397    0.0600
47     H47     8.8909   -3.1846    8.6400 H        1 ZINC001408567397    0.0700
48     H48    10.0145   -2.2540    9.6617 H        1 ZINC001408567397    0.0700
49     H49     8.3956   -3.5816   11.0235 H        1 ZINC001408567397    0.0900
50     H50     8.2135   -1.8312   11.2918 H        1 ZINC001408567397    0.0500
51     H51     6.3164   -0.6963   10.2796 H        1 ZINC001408567397    0.0400
52     H52     5.1754   -1.6559    9.3068 H        1 ZINC001408567397    0.1100
@<TRIPOS>BOND
1     1     2     1
2     1     26    1
3     1     27    1
4     1     28    1
5     2     7     1
6     2     3     2
7     3     4     1
8     4     5     1
9     4     29    1
10    5     6     1
11    5     7     2
12    6     30    1
13    6     31    1
14    6     32    1
15    7     8     1
16    8     9     1
17    8     33    1
18    8     34    1
19    9     10    2
20    9     11    am
21    11    12    1
22    11    35    1
23    12    13    1
24    12    36    1
25    12    37    1
26    13    14    1
27    13    38    1
28    13    39    1
29    14    15    1
30    14    16    am
31    15    40    1
32    15    41    1
33    15    42    1
34    16    17    2
35    16    18    1
36    18    19    1
37    18    43    1
38    18    44    1
39    19    20    1
40    19    25    1
41    19    21    1
42    21    22    1
43    21    45    1
44    21    46    1
45    22    23    1
46    22    47    1
47    22    48    1
48    23    24    1
49    23    49    1
50    23    50    1
51    24    25    1
52    25    51    1
53    25    52    1
@<TRIPOS>SUBSTRUCTURE
1   ZINC001408567397 1     RESIDUE    1   A     ZIN   1
@<TRIPOS>MOLECULE
ZINC000992031068
47	49	1	0	0
SMALL
USER_CHARGES
@<TRIPOS>ATOM
1      C1     -0.0184    1.5028    0.0103 C.3      1 ZINC000992031068   -0.1100
2      C2      0.0021   -0.0041    0.0020 C.ar     1 ZINC000992031068    0.1800
3      C3      0.0060   -0.7002   -1.1983 C.ar     1 ZINC000992031068   -0.1700
4      C4      0.0256   -2.0947   -1.1534 C.ar     1 ZINC000992031068    0.1300
5      C5      0.0312   -2.8901   -2.4068 C.2      1 ZINC000992031068    0.5700
6      O6      0.0186   -2.3274   -3.4833 O.2      1 ZINC000992031068   -0.5200
7      N7      0.0502   -4.2365   -2.3505 N.am     1 ZINC000992031068   -0.7100
8      C8      0.0557   -5.0215   -3.5874 C.3      1 ZINC000992031068    0.1300
9      C9      0.0780   -6.5125   -3.2452 C.3      1 ZINC000992031068   -0.1200
10     C10    -1.3205   -7.1188   -3.0413 C.3      1 ZINC000992031068   -0.1400
11     C11    -0.8071   -8.3575   -3.7942 C.3      1 ZINC000992031068    0.1200
12     N12    -1.7889   -8.9317   -4.7176 N.am     1 ZINC000992031068   -0.7200
13     C13    -1.7152  -10.2345   -5.0550 C.2      1 ZINC000992031068    0.5200
14     O14    -0.8362  -10.9314   -4.5942 O.2      1 ZINC000992031068   -0.5200
15     C15    -2.7252  -10.8251   -6.0048 C.3      1 ZINC000992031068   -0.0800
16     C16    -2.4224  -12.2863   -6.2151 C.2      1 ZINC000992031068    0.1000
17     C17    -2.8352  -13.3077   -5.4294 C.2      1 ZINC000992031068   -0.2500
18     C18    -2.3395  -14.4970   -5.9738 C.2      1 ZINC000992031068    0.0500
19     N19    -1.6538  -14.2002   -7.0478 N.2      1 ZINC000992031068   -0.2900
20     N20    -1.6959  -12.8111   -7.2241 N.pl3    1 ZINC000992031068   -0.3700
21     C21    -1.0565  -12.0600   -8.3072 C.3      1 ZINC000992031068    0.1000
22     C22     0.2081   -7.4252   -4.4760 C.3      1 ZINC000992031068   -0.1400
23     N23     0.0398   -2.6998    0.0318 N.ar     1 ZINC000992031068   -0.5000
24     C24     0.0354   -1.9984    1.1451 C.ar     1 ZINC000992031068    0.3000
25     N25     0.0220   -0.6796    1.1382 N.ar     1 ZINC000992031068   -0.5100
26     H26     1.0042    1.8801    0.0026 H        1 ZINC000992031068    0.0900
27     H27    -0.5455    1.8639   -0.8728 H        1 ZINC000992031068    0.0900
28     H28    -0.5286    1.8543    0.9071 H        1 ZINC000992031068    0.0900
29     H29    -0.0062   -0.1764   -2.1427 H        1 ZINC000992031068    0.1600
30     H30     0.0603   -4.6859   -1.4909 H        1 ZINC000992031068    0.4100
31     H31    -0.8401   -4.7947   -4.1656 H        1 ZINC000992031068    0.0700
32     H32     0.9397   -4.7699   -4.1735 H        1 ZINC000992031068    0.0800
33     H33     0.7802   -6.7531   -2.4470 H        1 ZINC000992031068    0.1000
34     H34    -1.5643   -7.3126   -1.9968 H        1 ZINC000992031068    0.0800
35     H35    -2.1097   -6.5831   -3.5689 H        1 ZINC000992031068    0.0900
36     H36    -0.3492   -9.1041   -3.1454 H        1 ZINC000992031068    0.1200
37     H37    -2.4920   -8.3743   -5.0861 H        1 ZINC000992031068    0.4000
38     H38    -3.7252  -10.7181   -5.5846 H        1 ZINC000992031068    0.1200
39     H39    -2.6746  -10.3024   -6.9600 H        1 ZINC000992031068    0.1100
40     H40    -3.4401  -13.2201   -4.5390 H        1 ZINC000992031068    0.1500
41     H41    -2.4954  -15.4889   -5.5759 H        1 ZINC000992031068    0.1800
42     H42    -1.7475  -11.9721   -9.1456 H        1 ZINC000992031068    0.0800
43     H43    -0.7892  -11.0651   -7.9509 H        1 ZINC000992031068    0.0800
44     H44    -0.1571  -12.5838   -8.6309 H        1 ZINC000992031068    0.0900
45     H45    -0.1632   -6.9733   -5.3959 H        1 ZINC000992031068    0.0900
46     H46     1.1983   -7.8664   -4.5897 H        1 ZINC000992031068    0.0800
47     H47     0.0472   -2.5177    2.0919 H        1 ZINC000992031068    0.2100
@<TRIPOS>BOND
1     1     2     1
2     1     26    1
3     1     27    1
4     1     28    1
5     2     25    ar
6     2     3     ar
7     3     4     ar
8     3     29    1
9     4     5     1
10    4     23    ar
11    5     6     2
12    5     7     am
13    7     8     1
14    7     30    1
15    8     9     1
16    8     31    1
17    8     32    1
18    9     22    1
19    9     10    1
20    9     33    1
21    10    11    1
22    10    34    1
23    10    35    1
24    11    12    1
25    11    22    1
26    11    36    1
27    12    13    am
28    12    37    1
29    13    14    2
30    13    15    1
31    15    16    1
32    15    38    1
33    15    39    1
34    16    20    1
35    16    17    2
36    17    18    1
37    17    40    1
38    18    19    2
39    18    41    1
40    19    20    1
41    20    21    1
42    21    42    1
43    21    43    1
44    21    44    1
45    22    45    1
46    22    46    1
47    23    24    ar
48    24    25    ar
49    24    47    1
@<TRIPOS>SUBSTRUCTURE
1   ZINC000992031068 1     RESIDUE    1   A     ZIN   1
@<TRIPOS>MOLECULE
ZINC001060733018
52	54	1	0	0
SMALL
USER_CHARGES
@<TRIPOS>ATOM
1      O1     -1.0746    1.9356    0.0177 O.2      1 ZINC001060733018   -0.5000
2      C2     -0.0162    1.3436    0.0094 C.2      1 ZINC001060733018    0.4700
3      N3      0.0021   -0.0041    0.0020 N.am     1 ZINC001060733018   -0.7100
4      C4     -1.2565   -0.7538    0.0100 C.3      1 ZINC001060733018    0.1200
5      C5     -0.9566   -2.2540   -0.0009 C.3      1 ZINC001060733018   -0.1000
6      H6     -0.3154   -2.4902   -0.8502 H        1 ZINC001060733018    0.0800
7      C7     -0.2464   -2.6416    1.2977 C.3      1 ZINC001060733018   -0.1100
8      C8      0.0536   -4.1419    1.2867 C.3      1 ZINC001060733018   -0.1300
9      C9     -1.2567   -4.9231    1.1693 C.3      1 ZINC001060733018    0.1400
10     H10    -1.8979   -4.6869    2.0186 H        1 ZINC001060733018    0.0900
11     N11    -0.9695   -6.3596    1.1589 N.am     1 ZINC001060733018   -0.7300
12     C12    -0.8263   -7.0267    2.3212 C.2      1 ZINC001060733018    0.5200
13     O13    -0.9351   -6.4377    3.3758 O.2      1 ZINC001060733018   -0.5400
14     C14    -0.5309   -8.5044    2.3104 C.3      1 ZINC001060733018   -0.1000
15     H15     0.4082   -8.6834    1.7868 H        1 ZINC001060733018    0.1000
16     C16    -1.6623   -9.2454    1.5962 C.3      1 ZINC001060733018   -0.1100
17     C17    -1.3353  -10.7372    1.5154 C.3      1 ZINC001060733018   -0.1200
18     C18    -1.2477  -11.3177    2.9302 C.3      1 ZINC001060733018   -0.0800
19     C19    -0.2031  -10.5292    3.7256 C.3      1 ZINC001060733018   -0.1300
20     C20     1.2365  -11.0426    3.7110 C.3      1 ZINC001060733018   -0.1700
21     C21     0.3847  -11.1855    4.9742 C.3      1 ZINC001060733018   -0.1700
22     C22    -0.4175   -9.0130    3.7508 C.3      1 ZINC001060733018   -0.0600
23     C23    -1.9670   -4.5355   -0.1292 C.3      1 ZINC001060733018   -0.1200
24     C24    -2.2669   -3.0352   -0.1183 C.3      1 ZINC001060733018   -0.1100
25     C25     1.2785    2.1147    0.0012 C.3      1 ZINC001060733018    0.2600
26     F26     1.0079    3.4816    0.1261 F        1 ZINC001060733018   -0.1700
27     F27     2.0766    1.6976    1.0719 F        1 ZINC001060733018   -0.1900
28     H28     0.8486   -0.4776   -0.0086 H        1 ZINC001060733018    0.4100
29     H29    -1.8231   -0.5030    0.9068 H        1 ZINC001060733018    0.0800
30     H30    -1.8401   -0.4935   -0.8731 H        1 ZINC001060733018    0.0800
31     H31     0.6871   -2.0851    1.3813 H        1 ZINC001060733018    0.0700
32     H32    -0.8875   -2.4054    2.1469 H        1 ZINC001060733018    0.0700
33     H33     0.5595   -4.4180    2.2118 H        1 ZINC001060733018    0.0700
34     H34     0.6947   -4.3780    0.4375 H        1 ZINC001060733018    0.0600
35     H35    -0.8825   -6.8307    0.3154 H        1 ZINC001060733018    0.4000
36     H36    -2.5914   -9.1076    2.1493 H        1 ZINC001060733018    0.0700
37     H37    -1.7777   -8.8458    0.5887 H        1 ZINC001060733018    0.0700
38     H38    -2.1193  -11.2515    0.9595 H        1 ZINC001060733018    0.0700
39     H39    -0.3807  -10.8730    1.0071 H        1 ZINC001060733018    0.0700
40     H40    -2.2181  -11.2348    3.4196 H        1 ZINC001060733018    0.0700
41     H41    -0.9519  -12.3654    2.8774 H        1 ZINC001060733018    0.0700
42     H42     1.4428  -11.9466    3.1380 H        1 ZINC001060733018    0.0900
43     H43     2.0355  -10.3012    3.7238 H        1 ZINC001060733018    0.0900
44     H44     0.6233  -10.5382    5.8181 H        1 ZINC001060733018    0.0900
45     H45     0.0303  -12.1834    5.2325 H        1 ZINC001060733018    0.0900
46     H46     0.4287   -8.5327    4.2421 H        1 ZINC001060733018    0.0700
47     H47    -1.3350   -8.7830    4.2925 H        1 ZINC001060733018    0.0800
48     H48    -2.9004   -5.0921   -0.2129 H        1 ZINC001060733018    0.0700
49     H49    -1.3258   -4.7717   -0.9785 H        1 ZINC001060733018    0.0700
50     H50    -2.9081   -2.7991    0.7309 H        1 ZINC001060733018    0.0700
51     H51    -2.7729   -2.7591   -1.0434 H        1 ZINC001060733018    0.0700
52     H52     1.8040    1.9325   -0.9362 H        1 ZINC001060733018    0.1400
@<TRIPOS>BOND
1     1     2     2
2     2     3     am
3     2     25    1
4     3     4     1
5     3     28    1
6     4     5     1
7     4     29    1
8     4     30    1
9     5     6     1
10    5     24    1
11    5     7     1
12    7     8     1
13    7     31    1
14    7     32    1
15    8     9     1
16    8     33    1
17    8     34    1
18    9     10    1
19    9     11    1
20    9     23    1
21    11    12    am
22    11    35    1
23    12    13    2
24    12    14    1
25    14    15    1
26    14    22    1
27    14    16    1
28    16    17    1
29    16    36    1
30    16    37    1
31    17    18    1
32    17    38    1
33    17    39    1
34    18    19    1
35    18    40    1
36    18    41    1
37    19    21    1
38    19    20    1
39    19    22    1
40    20    21    1
41    20    42    1
42    20    43    1
43    21    44    1
44    21    45    1
45    22    46    1
46    22    47    1
47    23    24    1
48    23    48    1
49    23    49    1
50    24    50    1
51    24    51    1
52    25    26    1
53    25    27    1
54    25    52    1
@<TRIPOS>SUBSTRUCTURE
1   ZINC001060733018 1     RESIDUE    1   A     ZIN   1
@<TRIPOS>MOLECULE
ZINC001340305486
53	55	1	0	0
SMALL
USER_CHARGES
@<TRIPOS>ATOM
1      C1      0.1921    1.5226    0.1498 C.3      1 ZINC001340305486    0.0900
2      N2      0.1502    0.0584    0.1282 N.am     1 ZINC001340305486   -0.7300
3      C3      0.6423   -0.6143   -0.9310 C.2      1 ZINC001340305486    0.5200
4      O4      1.1198   -0.0074   -1.8662 O.2      1 ZINC001340305486   -0.5100
5      C5      0.5992   -2.1205   -0.9533 C.3      1 ZINC001340305486    0.0600
6      H6     -0.4255   -2.4577   -0.7974 H        1 ZINC001340305486    0.0900
7      C7      1.4956   -2.6749    0.1598 C.3      1 ZINC001340305486    0.0900
8      N8      1.5848   -4.1350   -0.0001 N.am     1 ZINC001340305486   -0.5800
9      C9      1.3509   -4.9622    1.0379 C.2      1 ZINC001340305486    0.5100
10     O10     1.0911   -4.5049    2.1316 O.2      1 ZINC001340305486   -0.5200
11     C11     1.4113   -6.4426    0.8421 C.2      1 ZINC001340305486    0.5200
12     O12     1.7844   -6.8996   -0.2184 O.2      1 ZINC001340305486   -0.5000
13     N13     1.0514   -7.2700    1.8432 N.am     1 ZINC001340305486   -0.6900
14     C14     1.1107   -8.7212    1.6512 C.3      1 ZINC001340305486    0.1200
15     C15     0.6529   -9.4240    2.9308 C.3      1 ZINC001340305486   -0.0400
16     C16     0.7138  -10.9168    2.7332 C.2      1 ZINC001340305486    0.1700
17     N17    -0.2440  -11.6787    2.2749 N.2      1 ZINC001340305486   -0.2800
18     N18     0.1568  -12.9015    2.2327 N.2      1 ZINC001340305486   -0.2900
19     C19     1.3864  -12.9718    2.6567 C.2      1 ZINC001340305486    0.1900
20     C20     2.2489  -14.2038    2.7481 C.3      1 ZINC001340305486   -0.0400
21     C21     2.9393  -14.2315    4.1150 C.3      1 ZINC001340305486   -0.1200
22     C22     4.2575  -13.4672    4.0374 C.3      1 ZINC001340305486   -0.1300
23     C23     4.1422  -12.2991    3.0592 C.3      1 ZINC001340305486   -0.1400
24     C24     3.0669  -11.3228    3.5443 C.3      1 ZINC001340305486    0.1000
25     N25     1.7710  -11.7180    2.9913 N.pl3    1 ZINC001340305486   -0.4600
26     C26     1.9375   -4.6652   -1.3267 C.3      1 ZINC001340305486    0.0200
27     C27     1.0196   -4.0138   -2.3674 C.3      1 ZINC001340305486    0.0500
28     O28     1.0703   -2.5930   -2.2176 O.3      1 ZINC001340305486   -0.3500
29     H29     1.2272    1.8575    0.0830 H        1 ZINC001340305486    0.0600
30     H30    -0.3720    1.9148   -0.6964 H        1 ZINC001340305486    0.0600
31     H31    -0.2477    1.8850    1.0790 H        1 ZINC001340305486    0.0800
32     H32    -0.2317   -0.4270    0.8761 H        1 ZINC001340305486    0.4000
33     H33     2.4903   -2.2357    0.0831 H        1 ZINC001340305486    0.0900
34     H34     1.0630   -2.4378    1.1318 H        1 ZINC001340305486    0.1100
35     H35     0.7532   -6.9047    2.6908 H        1 ZINC001340305486    0.4200
36     H36     0.4569   -9.0056    0.8266 H        1 ZINC001340305486    0.0900
37     H37     2.1346   -9.0158    1.4213 H        1 ZINC001340305486    0.0800
38     H38     1.3066   -9.1396    3.7553 H        1 ZINC001340305486    0.0900
39     H39    -0.3711   -9.1294    3.1607 H        1 ZINC001340305486    0.1100
40     H40     1.6281  -15.0926    2.6352 H        1 ZINC001340305486    0.1000
41     H41     3.0016  -14.1811    1.9599 H        1 ZINC001340305486    0.0900
42     H42     2.2924  -13.7650    4.8579 H        1 ZINC001340305486    0.0600
43     H43     3.1351  -15.2647    4.4020 H        1 ZINC001340305486    0.0800
44     H44     4.5103  -13.0847    5.0263 H        1 ZINC001340305486    0.0700
45     H45     5.0451  -14.1416    3.7011 H        1 ZINC001340305486    0.0800
46     H46     5.0999  -11.7821    2.9973 H        1 ZINC001340305486    0.0900
47     H47     3.8708  -12.6770    2.0735 H        1 ZINC001340305486    0.0800
48     H48     3.0228  -11.3421    4.6332 H        1 ZINC001340305486    0.0900
49     H49     3.3118  -10.3154    3.2077 H        1 ZINC001340305486    0.1000
50     H50     2.9767   -4.4264   -1.5530 H        1 ZINC001340305486    0.0800
51     H51     1.7976   -5.7461   -1.3390 H        1 ZINC001340305486    0.1700
52     H52     1.3532   -4.2865   -3.3686 H        1 ZINC001340305486    0.1200
53     H53    -0.0035   -4.3587   -2.2171 H        1 ZINC001340305486    0.0600
@<TRIPOS>BOND
1     1     2     1
2     1     29    1
3     1     30    1
4     1     31    1
5     2     3     am
6     2     32    1
7     3     4     2
8     3     5     1
9     5     6     1
10    5     28    1
11    5     7     1
12    7     8     1
13    7     33    1
14    7     34    1
15    8     9     am
16    8     26    1
17    9     10    2
18    9     11    1
19    11    12    2
20    11    13    am
21    13    14    1
22    13    35    1
23    14    15    1
24    14    36    1
25    14    37    1
26    15    16    1
27    15    38    1
28    15    39    1
29    16    25    1
30    16    17    2
31    17    18    1
32    18    19    2
33    19    25    1
34    19    20    1
35    20    21    1
36    20    40    1
37    20    41    1
38    21    22    1
39    21    42    1
40    21    43    1
41    22    23    1
42    22    44    1
43    22    45    1
44    23    24    1
45    23    46    1
46    23    47    1
47    24    25    1
48    24    48    1
49    24    49    1
50    26    27    1
51    26    50    1
52    26    51    1
53    27    28    1
54    27    52    1
55    27    53    1
@<TRIPOS>SUBSTRUCTURE
1   ZINC001340305486 1     RESIDUE    1   A     ZIN   1
@<TRIPOS>MOLECULE
ZINC000864477301
46	47	1	0	0
SMALL
USER_CHARGES
@<TRIPOS>ATOM
1      C1     -0.5900    0.9079   -6.8996 C.3      1 ZINC000864477301   -0.1500
2      C2     -0.3168   -0.5955   -6.9760 C.3      1 ZINC000864477301    0.0600
3      O3      1.0704   -0.8534   -6.6334 O.3      1 ZINC000864477301   -0.3500
4      C4      1.4767   -2.1376   -6.6528 C.2      1 ZINC000864477301    0.5100
5      O5      0.6935   -3.0180   -6.9478 O.2      1 ZINC000864477301   -0.5000
6      C6      2.8746   -2.4753   -6.3152 C.ar     1 ZINC000864477301   -0.1400
7      C7      3.7759   -1.4665   -5.9701 C.ar     1 ZINC000864477301   -0.0300
8      C8      5.0801   -1.7890   -5.6560 C.ar     1 ZINC000864477301   -0.1500
9      C9      5.4955   -3.1083   -5.6829 C.ar     1 ZINC000864477301   -0.0100
10     C10     4.6073   -4.1132   -6.0241 C.ar     1 ZINC000864477301   -0.4900
11     S11     5.1471   -5.7902   -6.0552 S.o      1 ZINC000864477301    1.3800
12     O12     4.2273   -6.4056   -6.9466 O.2      1 ZINC000864477301   -0.8100
13     C13     4.8196   -6.3557   -4.3630 C.3      1 ZINC000864477301   -0.4600
14     H14     5.4533   -5.8059   -3.6672 H        1 ZINC000864477301    0.1400
15     C15     3.3496   -6.1088   -4.0183 C.3      1 ZINC000864477301   -0.1400
16     C16     5.1194   -7.8289   -4.2588 C.2      1 ZINC000864477301    0.5500
17     O17     5.1591   -8.5120   -5.2603 O.2      1 ZINC000864477301   -0.5100
18     N18     5.3433   -8.3874   -3.0529 N.am     1 ZINC000864477301   -0.6800
19     C19     5.5166   -9.7722   -2.9442 C.ar     1 ZINC000864477301    0.1400
20     C20     6.7931  -10.3172   -2.9653 C.ar     1 ZINC000864477301   -0.0600
21     C21     7.9946   -9.4185   -3.1054 C.3      1 ZINC000864477301   -0.1100
22     C22     6.9611  -11.6843   -2.8573 C.ar     1 ZINC000864477301   -0.1100
23     C23     5.8598  -12.5100   -2.7283 C.ar     1 ZINC000864477301   -0.1000
24     C24     4.5862  -11.9710   -2.7073 C.ar     1 ZINC000864477301   -0.1100
25     C25     4.4113  -10.6041   -2.8090 C.ar     1 ZINC000864477301   -0.0200
26     Cl26    2.8127   -9.9279   -2.7820 Cl       1 ZINC000864477301   -0.0600
27     C27     3.2991   -3.8056   -6.3343 C.ar     1 ZINC000864477301    0.0100
28     H28    -0.3939    1.2619   -5.8875 H        1 ZINC000864477301    0.0700
29     H29     0.0606    1.4315   -7.6001 H        1 ZINC000864477301    0.0700
30     H30    -1.6314    1.1015   -7.1568 H        1 ZINC000864477301    0.0800
31     H31    -0.9674   -1.1191   -6.2756 H        1 ZINC000864477301    0.0700
32     H32    -0.5129   -0.9495   -7.9881 H        1 ZINC000864477301    0.0700
33     H33     3.4531   -0.4361   -5.9494 H        1 ZINC000864477301    0.1400
34     H34     5.7784   -1.0096   -5.3889 H        1 ZINC000864477301    0.1400
35     H35     6.5177   -3.3551   -5.4369 H        1 ZINC000864477301    0.1500
36     H36     3.1528   -6.4486   -3.0014 H        1 ZINC000864477301    0.0700
37     H37     3.1327   -5.0432   -4.0936 H        1 ZINC000864477301    0.0700
38     H38     2.7158   -6.6586   -4.7141 H        1 ZINC000864477301    0.0700
39     H39     5.3843   -7.8298   -2.2602 H        1 ZINC000864477301    0.4100
40     H40     8.3384   -9.1147   -2.1166 H        1 ZINC000864477301    0.0800
41     H41     8.7924   -9.9557   -3.6182 H        1 ZINC000864477301    0.0700
42     H42     7.7222   -8.5349   -3.6826 H        1 ZINC000864477301    0.0700
43     H43     7.9541  -12.1086   -2.8741 H        1 ZINC000864477301    0.1400
44     H44     5.9942  -13.5782   -2.6441 H        1 ZINC000864477301    0.1400
45     H45     3.7278  -12.6188   -2.6067 H        1 ZINC000864477301    0.1400
46     H46     2.6068   -4.5908   -6.6001 H        1 ZINC000864477301    0.1400
@<TRIPOS>BOND
1     1     2     1
2     1     28    1
3     1     29    1
4     1     30    1
5     2     3     1
6     2     31    1
7     2     32    1
8     3     4     1
9     4     5     2
10    4     6     1
11    6     27    ar
12    6     7     ar
13    7     8     ar
14    7     33    1
15    8     9     ar
16    8     34    1
17    9     10    ar
18    9     35    1
19    10    11    1
20    10    27    ar
21    11    12    2
22    11    13    1
23    13    14    1
24    13    15    1
25    13    16    1
26    15    36    1
27    15    37    1
28    15    38    1
29    16    17    2
30    16    18    am
31    18    19    1
32    18    39    1
33    19    25    ar
34    19    20    ar
35    20    21    1
36    20    22    ar
37    21    40    1
38    21    41    1
39    21    42    1
40    22    23    ar
41    22    43    1
42    23    24    ar
43    23    44    1
44    24    25    ar
45    24    45    1
46    25    26    1
47    27    46    1
@<TRIPOS>SUBSTRUCTURE
1   ZINC000864477301 1     RESIDUE    1   A     ZIN   1
@<TRIPOS>MOLECULE
ZINC000774689801
41	44	1	0	0
SMALL
USER_CHARGES
@<TRIPOS>ATOM
1      C1     -0.0184    1.5028    0.0103 C.3      1 ZINC000774689801   -0.1200
2      C2      0.0021   -0.0041    0.0020 C.2      1 ZINC000774689801    0.0600
3      C3      0.0066   -0.7143   -1.1375 C.2      1 ZINC000774689801   -0.2800
4      C4     -0.0070   -0.1349   -2.4823 C.2      1 ZINC000774689801    0.5500
5      O5     -0.0237    1.0730   -2.6239 O.2      1 ZINC000774689801   -0.4900
6      O6     -0.0009   -0.9408   -3.5641 O.3      1 ZINC000774689801   -0.3400
7      C7     -0.0152   -0.2972   -4.8656 C.3      1 ZINC000774689801    0.0900
8      C8     -0.0057   -1.3641   -5.9622 C.3      1 ZINC000774689801   -0.1300
9      H9     -0.8252   -2.0677   -5.8158 H        1 ZINC000774689801    0.1200
10     C10    -0.1004   -0.7061   -7.3583 C.3      1 ZINC000774689801   -0.1300
11     C11     0.8142   -1.6224   -8.2011 C.3      1 ZINC000774689801    0.1000
12     N12     1.7595   -2.2157   -7.2480 N.am     1 ZINC000774689801   -0.7400
13     C13     1.3203   -2.0922   -5.9811 C.2      1 ZINC000774689801    0.5200
14     O14     1.9046   -2.5014   -5.0003 O.2      1 ZINC000774689801   -0.5100
15     S15     0.0317   -2.4347   -0.7895 S.3      1 ZINC000774689801    0.3000
16     C16     0.0350   -2.1333    0.9441 C.2      1 ZINC000774689801    0.1000
17     C17     0.0234   -0.7540    1.1764 C.2      1 ZINC000774689801   -0.2500
18     C18     0.0247   -0.3147    2.5848 C.2      1 ZINC000774689801    0.5700
19     O19     0.0139    0.8703    2.8666 O.2      1 ZINC000774689801   -0.5000
20     N20     0.0378   -1.2563    3.5573 N.am     1 ZINC000774689801   -0.5500
21     C21     0.0470   -1.0728    5.0189 C.3      1 ZINC000774689801    0.0900
22     C22    -0.3835   -2.4310    5.6102 C.3      1 ZINC000774689801   -0.1300
23     C23     0.0543   -3.4114    4.5008 C.3      1 ZINC000774689801   -0.0800
24     C24     0.0460   -2.5740    3.2327 C.2      1 ZINC000774689801    0.4200
25     N25     0.0504   -2.9775    1.9900 N.2      1 ZINC000774689801   -0.5100
26     H26     1.0042    1.8801    0.0026 H        1 ZINC000774689801    0.0800
27     H27    -0.5455    1.8639   -0.8728 H        1 ZINC000774689801    0.1000
28     H28    -0.5286    1.8543    0.9071 H        1 ZINC000774689801    0.0800
29     H29    -0.9138    0.3125   -4.9596 H        1 ZINC000774689801    0.0900
30     H30     0.8660    0.3363   -4.9674 H        1 ZINC000774689801    0.0800
31     H31    -1.1244   -0.7277   -7.7311 H        1 ZINC000774689801    0.1000
32     H32     0.2835    0.3138   -7.3357 H        1 ZINC000774689801    0.0900
33     H33     0.2252   -2.4026   -8.6834 H        1 ZINC000774689801    0.0800
34     H34     1.3496   -1.0367   -8.9483 H        1 ZINC000774689801    0.0800
35     H35     2.5932   -2.6436   -7.4985 H        1 ZINC000774689801    0.4100
36     H36     1.0495   -0.8142    5.3598 H        1 ZINC000774689801    0.1000
37     H37    -0.6614   -0.2956    5.3055 H        1 ZINC000774689801    0.1000
38     H38     0.1442   -2.6355    6.5418 H        1 ZINC000774689801    0.1100
39     H39    -1.4627   -2.4670    5.7589 H        1 ZINC000774689801    0.0900
40     H40     1.0567   -3.7900    4.7007 H        1 ZINC000774689801    0.1200
41     H41    -0.6553   -4.2347    4.4182 H        1 ZINC000774689801    0.1200
@<TRIPOS>BOND
1     1     2     1
2     1     26    1
3     1     27    1
4     1     28    1
5     2     17    1
6     2     3     2
7     3     4     1
8     3     15    1
9     4     5     2
10    4     6     1
11    6     7     1
12    7     8     1
13    7     29    1
14    7     30    1
15    8     9     1
16    8     13    1
17    8     10    1
18    10    11    1
19    10    31    1
20    10    32    1
21    11    12    1
22    11    33    1
23    11    34    1
24    12    13    am
25    12    35    1
26    13    14    2
27    15    16    1
28    16    25    1
29    16    17    2
30    17    18    1
31    18    19    2
32    18    20    am
33    20    24    1
34    20    21    1
35    21    22    1
36    21    36    1
37    21    37    1
38    22    23    1
39    22    38    1
40    22    39    1
41    23    24    1
42    23    40    1
43    23    41    1
44    24    25    2
@<TRIPOS>SUBSTRUCTURE
1   ZINC000774689801 1     RESIDUE    1   A     ZIN   1
@<TRIPOS>MOLECULE
ZINC000298969660
56	58	1	0	0
SMALL
USER_CHARGES
@<TRIPOS>ATOM
1      C1     -1.0977    1.4139    0.0640 C.3      1 ZINC000298969660    0.0800
2      N2     -1.7321    1.8956   -1.1655 N.am     1 ZINC000298969660   -0.6300
3      C3     -2.5495    3.1110   -1.1402 C.3      1 ZINC000298969660    0.1400
4      C4     -1.6649    4.3266   -1.4242 C.3      1 ZINC000298969660    0.0700
5      H5     -0.8357    4.3459   -0.7171 H        1 ZINC000298969660    0.0500
6      C6     -2.4924    5.6061   -1.2758 C.3      1 ZINC000298969660   -0.1500
7      C7     -1.6162    6.8144   -1.6201 C.3      1 ZINC000298969660   -0.1200
8      C8     -1.0618    6.6418   -3.0376 C.3      1 ZINC000298969660   -0.1600
9      C9     -0.2896    5.3223   -3.1180 C.3      1 ZINC000298969660    0.0600
10     O10    -1.1536    4.2432   -2.7561 O.3      1 ZINC000298969660   -0.3600
11     C11    -1.5636    1.2206   -2.3198 C.2      1 ZINC000298969660    0.7100
12     O12    -2.0901    1.6204   -3.3402 O.2      1 ZINC000298969660   -0.5400
13     N13    -0.8115    0.1024   -2.3430 N.am     1 ZINC000298969660   -0.6900
14     C14    -0.7138   -0.6508   -3.5183 C.ar     1 ZINC000298969660    0.2000
15     C15    -0.6320   -2.0356   -3.4519 C.ar     1 ZINC000298969660   -0.1800
16     C16    -0.5350   -2.7793   -4.6123 C.ar     1 ZINC000298969660   -0.0600
17     C17    -0.5195   -2.1479   -5.8412 C.ar     1 ZINC000298969660   -0.2300
18     C18    -0.6010   -0.7641   -5.9136 C.ar     1 ZINC000298969660    0.1500
19     O19    -0.5852   -0.1445   -7.1230 O.3      1 ZINC000298969660   -0.2900
20     C20    -0.4828   -0.9792   -8.2784 C.3      1 ZINC000298969660    0.0400
21     C21    -0.4802   -0.1226   -9.5183 C.2      1 ZINC000298969660    0.5100
22     O22    -0.5583    1.0839   -9.4220 O.2      1 ZINC000298969660   -0.4900
23     N23    -0.3911   -0.6973  -10.7341 N.am     1 ZINC000298969660   -0.6700
24     C24    -0.2814    0.1003  -11.8786 C.ar     1 ZINC000298969660    0.1400
25     C25    -0.8601   -0.3116  -13.0719 C.ar     1 ZINC000298969660   -0.1400
26     C26    -0.7500    0.4779  -14.1997 C.ar     1 ZINC000298969660   -0.1000
27     C27    -0.0640    1.6771  -14.1418 C.ar     1 ZINC000298969660   -0.1300
28     C28     0.5138    2.0899  -12.9552 C.ar     1 ZINC000298969660   -0.1000
29     C29     0.4016    1.3081  -11.8221 C.ar     1 ZINC000298969660   -0.1200
30     C30    -0.7041   -0.0152   -4.7521 C.ar     1 ZINC000298969660   -0.1500
31     H31    -1.7733    0.7298    0.5776 H        1 ZINC000298969660    0.0600
32     H32    -0.1729    0.8930   -0.1843 H        1 ZINC000298969660    0.0700
33     H33    -0.8748    2.2603    0.7136 H        1 ZINC000298969660    0.0800
34     H34    -3.3271    3.0418   -1.9010 H        1 ZINC000298969660    0.1000
35     H35    -3.0105    3.2186   -0.1584 H        1 ZINC000298969660    0.0900
36     H36    -3.3449    5.5693   -1.9540 H        1 ZINC000298969660    0.0800
37     H37    -2.8464    5.6938   -0.2486 H        1 ZINC000298969660    0.0700
38     H38    -2.2142    7.7244   -1.5708 H        1 ZINC000298969660    0.0700
39     H39    -0.7907    6.8801   -0.9113 H        1 ZINC000298969660    0.0600
40     H40    -1.8854    6.6259   -3.7514 H        1 ZINC000298969660    0.0700
41     H41    -0.3927    7.4702   -3.2704 H        1 ZINC000298969660    0.0700
42     H42     0.0710    5.1736   -4.1358 H        1 ZINC000298969660    0.0900
43     H43     0.5578    5.3548   -2.4331 H        1 ZINC000298969660    0.0400
44     H44    -0.3380   -0.1802   -1.5450 H        1 ZINC000298969660    0.4100
45     H45    -0.6439   -2.5315   -2.4925 H        1 ZINC000298969660    0.1300
46     H46    -0.4708   -3.8560   -4.5587 H        1 ZINC000298969660    0.1300
47     H47    -0.4436   -2.7318   -6.7466 H        1 ZINC000298969660    0.1300
48     H48     0.4427   -1.5530   -8.2312 H        1 ZINC000298969660    0.1000
49     H49    -1.3322   -1.6616   -8.3100 H        1 ZINC000298969660    0.1000
50     H50    -0.4030   -1.6637  -10.8158 H        1 ZINC000298969660    0.4100
51     H51    -1.3954   -1.2485  -13.1179 H        1 ZINC000298969660    0.1300
52     H52    -1.1999    0.1581  -15.1280 H        1 ZINC000298969660    0.1300
53     H53     0.0210    2.2925  -15.0252 H        1 ZINC000298969660    0.1200
54     H54     1.0495    3.0267  -12.9133 H        1 ZINC000298969660    0.1300
55     H55     0.8531    1.6310  -10.8957 H        1 ZINC000298969660    0.1300
56     H56    -0.7676    1.0615   -4.8065 H        1 ZINC000298969660    0.1500
@<TRIPOS>BOND
1     1     2     1
2     1     31    1
3     1     32    1
4     1     33    1
5     2     3     1
6     2     11    am
7     3     4     1
8     3     34    1
9     3     35    1
10    4     5     1
11    4     10    1
12    4     6     1
13    6     7     1
14    6     36    1
15    6     37    1
16    7     8     1
17    7     38    1
18    7     39    1
19    8     9     1
20    8     40    1
21    8     41    1
22    9     10    1
23    9     42    1
24    9     43    1
25    11    12    2
26    11    13    am
27    13    14    1
28    13    44    1
29    14    30    ar
30    14    15    ar
31    15    16    ar
32    15    45    1
33    16    17    ar
34    16    46    1
35    17    18    ar
36    17    47    1
37    18    19    1
38    18    30    ar
39    19    20    1
40    20    21    1
41    20    48    1
42    20    49    1
43    21    22    2
44    21    23    am
45    23    24    1
46    23    50    1
47    24    29    ar
48    24    25    ar
49    25    26    ar
50    25    51    1
51    26    27    ar
52    26    52    1
53    27    28    ar
54    27    53    1
55    28    29    ar
56    28    54    1
57    29    55    1
58    30    56    1
@<TRIPOS>SUBSTRUCTURE
1   ZINC000298969660 1     RESIDUE    1   A     ZIN   1
@<TRIPOS>MOLECULE
ZINC000047262406
48	51	1	0	0
SMALL
USER_CHARGES
@<TRIPOS>ATOM
1      C1     -1.4721   -0.6291   -0.0224 C.3      1 ZINC000047262406   -0.1500
2      C2     -0.0677   -0.0227   -0.0539 C.3      1 ZINC000047262406    0.1800
3      H3     -0.1402    1.0641   -0.0116 H        1 ZINC000047262406    0.0800
4      C4      0.6271   -0.4306   -1.3274 C.2      1 ZINC000047262406    0.1700
5      N5      1.1878   -1.5833   -1.5622 N.2      1 ZINC000047262406   -0.2500
6      N6      1.6845   -1.5877   -2.7490 N.2      1 ZINC000047262406   -0.2700
7      C7      1.4551   -0.4246   -3.3188 C.2      1 ZINC000047262406    0.2400
8      C8      1.8583   -0.0221   -4.6745 C.2      1 ZINC000047262406   -0.1500
9      C9      2.5353   -0.8044   -5.5596 C.2      1 ZINC000047262406   -0.0600
10     C10     2.7981   -0.2004   -6.7693 C.2      1 ZINC000047262406   -0.1400
11     C11     2.3509    1.0540   -6.8881 C.2      1 ZINC000047262406   -0.1900
12     S12     1.5350    1.5429   -5.4094 S.3      1 ZINC000047262406    0.1700
13     O13     0.7752    0.3277   -2.4290 O.3      1 ZINC000047262406   -0.2200
14     N14     0.7010   -0.5075    1.1002 N.3      1 ZINC000047262406   -0.5200
15     C15    -0.0144   -0.2471    2.3559 C.3      1 ZINC000047262406    0.0500
16     C16     0.7428   -0.8918    3.5191 C.3      1 ZINC000047262406   -0.1000
17     C17     2.1576   -0.3098    3.5858 C.3      1 ZINC000047262406   -0.1100
18     C18     2.9278   -0.9840    4.6918 C.2      1 ZINC000047262406    0.5100
19     O19     2.3985   -1.8454    5.3616 O.2      1 ZINC000047262406   -0.4600
20     N20     4.2050   -0.6297    4.9365 N.am     1 ZINC000047262406   -0.6600
21     C21     4.9511   -1.3242    5.8883 C.ar     1 ZINC000047262406    0.3600
22     C22     6.2987   -1.0285    6.0560 C.ar     1 ZINC000047262406   -0.2000
23     C23     7.0280   -1.7246    7.0042 C.ar     1 ZINC000047262406   -0.0400
24     C24     6.3805   -2.6970    7.7551 C.ar     1 ZINC000047262406   -0.1200
25     Cl25    7.2483   -3.5990    8.9581 Cl       1 ZINC000047262406   -0.0500
26     C26     5.0374   -2.9385    7.5347 C.ar     1 ZINC000047262406    0.1500
27     N27     4.3678   -2.2549    6.6269 N.ar     1 ZINC000047262406   -0.4600
28     C28     2.8640   -0.5518    2.2490 C.3      1 ZINC000047262406   -0.1100
29     C29     2.0453    0.0830    1.1227 C.3      1 ZINC000047262406    0.0600
30     H30    -1.9746   -0.3341    0.8988 H        1 ZINC000047262406    0.0800
31     H31    -2.0425   -0.2694   -0.8787 H        1 ZINC000047262406    0.0700
32     H32    -1.3996   -1.7159   -0.0647 H        1 ZINC000047262406    0.0800
33     H33     2.8411   -1.8149   -5.3319 H        1 ZINC000047262406    0.1600
34     H34     3.3278   -0.7038   -7.5646 H        1 ZINC000047262406    0.1600
35     H35     2.4696    1.6739   -7.7645 H        1 ZINC000047262406    0.1800
36     H36    -0.0826    0.8286    2.5187 H        1 ZINC000047262406    0.0400
37     H37    -1.0174   -0.6696    2.2969 H        1 ZINC000047262406    0.0900
38     H38     0.2199   -0.6850    4.4529 H        1 ZINC000047262406    0.0800
39     H39     0.7995   -1.9692    3.3639 H        1 ZINC000047262406    0.0900
40     H40     2.1021    0.7611    3.7809 H        1 ZINC000047262406    0.1000
41     H41     4.6051    0.1084    4.4507 H        1 ZINC000047262406    0.4200
42     H42     6.7706   -0.2659    5.4542 H        1 ZINC000047262406    0.1500
43     H43     8.0768   -1.5166    7.1564 H        1 ZINC000047262406    0.1500
44     H44     4.5291   -3.6939    8.1156 H        1 ZINC000047262406    0.1700
45     H45     3.8566   -0.1022    2.2754 H        1 ZINC000047262406    0.0700
46     H46     2.9540   -1.6239    2.0738 H        1 ZINC000047262406    0.0800
47     H47     2.5383   -0.0998    0.1679 H        1 ZINC000047262406    0.0700
48     H48     1.9674    1.1571    1.2912 H        1 ZINC000047262406    0.0400
@<TRIPOS>BOND
1     1     2     1
2     1     30    1
3     1     31    1
4     1     32    1
5     2     3     1
6     2     4     1
7     2     14    1
8     4     13    1
9     4     5     2
10    5     6     1
11    6     7     2
12    7     8     1
13    7     13    1
14    8     12    1
15    8     9     2
16    9     10    1
17    9     33    1
18    10    11    2
19    10    34    1
20    11    12    1
21    11    35    1
22    14    29    1
23    14    15    1
24    15    16    1
25    15    36    1
26    15    37    1
27    16    17    1
28    16    38    1
29    16    39    1
30    17    18    1
31    17    28    1
32    17    40    1
33    18    19    2
34    18    20    am
35    20    21    1
36    20    41    1
37    21    27    ar
38    21    22    ar
39    22    23    ar
40    22    42    1
41    23    24    ar
42    23    43    1
43    24    25    1
44    24    26    ar
45    26    27    ar
46    26    44    1
47    28    29    1
48    28    45    1
49    28    46    1
50    29    47    1
51    29    48    1
@<TRIPOS>SUBSTRUCTURE
1   ZINC000047262406 1     RESIDUE    1   A     ZIN   1
@<TRIPOS>MOLECULE
ZINC000369046711
56	58	1	0	0
SMALL
USER_CHARGES
@<TRIPOS>ATOM
1      C1      0.0048    1.4426    0.0922 C.3      1 ZINC000369046711   -0.1800
2      C2      0.0267   -0.0870    0.0661 C.3      1 ZINC000369046711    0.1400
3      C3      0.7753   -0.6074    1.2948 C.3      1 ZINC000369046711   -0.1800
4      C4     -1.4081   -0.6179    0.0804 C.3      1 ZINC000369046711   -0.1400
5      O5      0.6988   -0.5410   -1.1383 O.3      1 ZINC000369046711   -0.3700
6      C6      1.9787   -0.1580   -1.3054 C.2      1 ZINC000369046711    0.6500
7      O7      2.5193    0.5367   -0.4677 O.2      1 ZINC000369046711   -0.5700
8      N8      2.6602   -0.5450   -2.4018 N.am     1 ZINC000369046711   -0.7100
9      C9      4.0529   -0.1282   -2.5836 C.3      1 ZINC000369046711    0.1800
10     H10     4.5431   -0.0936   -1.6107 H        1 ZINC000369046711    0.0900
11     C11     4.0781    1.2681   -3.2043 C.3      1 ZINC000369046711   -0.1300
12     C12     3.3970    1.1922   -4.5758 C.3      1 ZINC000369046711   -0.1200
13     C13     4.2275    0.2828   -5.4768 C.3      1 ZINC000369046711   -0.1200
14     C14     4.2853   -1.1403   -4.9177 C.3      1 ZINC000369046711   -0.1000
15     H15     3.3439   -1.6723   -5.0544 H        1 ZINC000369046711    0.0900
16     C16     5.4710   -1.8452   -5.6318 C.3      1 ZINC000369046711    0.0400
17     N17     6.6652   -1.6365   -4.7899 N.3      1 ZINC000369046711   -0.5200
18     C18     7.7213   -0.9409   -5.5374 C.3      1 ZINC000369046711    0.1200
19     C19     8.3787   -1.9040   -6.4920 C.2      1 ZINC000369046711    0.2900
20     N20     8.0759   -2.0609   -7.7551 N.2      1 ZINC000369046711   -0.5400
21     C21     8.8573   -2.9957   -8.2944 C.2      1 ZINC000369046711    0.2000
22     N22     9.6718   -3.4486   -7.3779 N.2      1 ZINC000369046711   -0.3200
23     N23     9.3825   -2.7477   -6.1958 N.pl3    1 ZINC000369046711   -0.3700
24     C24    10.0378   -2.9105   -4.8957 C.3      1 ZINC000369046711    0.1000
25     C25    11.1615   -1.8813   -4.7585 C.3      1 ZINC000369046711    0.0500
26     F26    11.7127   -1.9609   -3.4751 F        1 ZINC000369046711   -0.2000
27     C27     6.2669   -0.8636   -3.5893 C.3      1 ZINC000369046711    0.0500
28     C28     4.7582   -1.1370   -3.4538 C.3      1 ZINC000369046711   -0.1000
29     H29     4.6106   -2.1297   -3.0285 H        1 ZINC000369046711    0.0900
30     H30     1.0270    1.8208    0.0820 H        1 ZINC000369046711    0.0900
31     H31    -0.5285    1.8133   -0.7831 H        1 ZINC000369046711    0.0600
32     H32    -0.4997    1.7833    0.9963 H        1 ZINC000369046711    0.0700
33     H33     0.2708   -0.2667    2.1989 H        1 ZINC000369046711    0.0700
34     H34     0.7909   -1.6972    1.2762 H        1 ZINC000369046711    0.0600
35     H35     1.7975   -0.2292    1.2846 H        1 ZINC000369046711    0.0900
36     H36    -1.9415   -0.2472   -0.7950 H        1 ZINC000369046711    0.0700
37     H37    -1.3925   -1.7077    0.0618 H        1 ZINC000369046711    0.0700
38     H38    -1.9126   -0.2772    0.9845 H        1 ZINC000369046711    0.0800
39     H39     2.2287   -1.0995   -3.0705 H        1 ZINC000369046711    0.4000
40     H40     3.5387    1.9656   -2.5635 H        1 ZINC000369046711    0.0700
41     H41     5.1097    1.5994   -3.3234 H        1 ZINC000369046711    0.0800
42     H42     2.3934    0.7816   -4.4650 H        1 ZINC000369046711    0.0600
43     H43     3.3400    2.1891   -5.0130 H        1 ZINC000369046711    0.0700
44     H44     3.7806    0.2589   -6.4707 H        1 ZINC000369046711    0.0700
45     H45     5.2400    0.6798   -5.5501 H        1 ZINC000369046711    0.0600
46     H46     5.2661   -2.9113   -5.7294 H        1 ZINC000369046711    0.0800
47     H47     5.6279   -1.4043   -6.6163 H        1 ZINC000369046711    0.0800
48     H48     7.2852   -0.1142   -6.0982 H        1 ZINC000369046711    0.0800
49     H49     8.4654   -0.5549   -4.8408 H        1 ZINC000369046711    0.1000
50     H50     8.8229   -3.3261   -9.3221 H        1 ZINC000369046711    0.2200
51     H51     9.3083   -2.7603   -4.0998 H        1 ZINC000369046711    0.1200
52     H52    10.4542   -3.9151   -4.8220 H        1 ZINC000369046711    0.1100
53     H53    11.9344   -2.0863   -5.4992 H        1 ZINC000369046711    0.0900
54     H54    10.7597   -0.8810   -4.9199 H        1 ZINC000369046711    0.0800
55     H55     6.8018   -1.2217   -2.7097 H        1 ZINC000369046711    0.0900
56     H56     6.4494    0.2001   -3.7419 H        1 ZINC000369046711    0.0600
@<TRIPOS>BOND
1     1     2     1
2     1     30    1
3     1     31    1
4     1     32    1
5     2     3     1
6     2     4     1
7     2     5     1
8     3     33    1
9     3     34    1
10    3     35    1
11    4     36    1
12    4     37    1
13    4     38    1
14    5     6     1
15    6     7     2
16    6     8     am
17    8     9     1
18    8     39    1
19    9     10    1
20    9     28    1
21    9     11    1
22    11    12    1
23    11    40    1
24    11    41    1
25    12    13    1
26    12    42    1
27    12    43    1
28    13    14    1
29    13    44    1
30    13    45    1
31    14    15    1
32    14    28    1
33    14    16    1
34    16    17    1
35    16    46    1
36    16    47    1
37    17    18    1
38    17    27    1
39    18    19    1
40    18    48    1
41    18    49    1
42    19    23    1
43    19    20    2
44    20    21    1
45    21    22    2
46    21    50    1
47    22    23    1
48    23    24    1
49    24    25    1
50    24    51    1
51    24    52    1
52    25    26    1
53    25    53    1
54    25    54    1
55    27    28    1
56    27    55    1
57    27    56    1
58    28    29    1
@<TRIPOS>SUBSTRUCTURE
1   ZINC000369046711 1     RESIDUE    1   A     ZIN   1
@<TRIPOS>MOLECULE
ZINC000590699876
65	67	1	0	0
SMALL
USER_CHARGES
@<TRIPOS>ATOM
1      C1     -0.9015    1.3408   -1.7126 C.3      1 ZINC000590699876   -0.1700
2      C2     -0.8927   -0.1661   -1.7052 C.2      1 ZINC000590699876    0.5100
3      O3      0.1485   -0.7672   -1.8644 O.2      1 ZINC000590699876   -0.5500
4      N4     -2.0419   -0.8458   -1.5216 N.am     1 ZINC000590699876   -0.7200
5      C5     -2.0334   -2.3108   -1.5144 C.3      1 ZINC000590699876    0.1100
6      C6     -3.4342   -2.8203   -1.2925 C.2      1 ZINC000590699876    0.5300
7      O7     -4.3495   -2.0368   -1.1539 O.2      1 ZINC000590699876   -0.5200
8      N8     -3.6697   -4.1465   -1.2479 N.am     1 ZINC000590699876   -0.6000
9      C9     -2.6539   -5.2050   -1.3940 C.3      1 ZINC000590699876    0.1000
10     C10    -3.2582   -6.4366   -0.6745 C.3      1 ZINC000590699876   -0.1300
11     C11    -4.7604   -6.3046   -1.0397 C.3      1 ZINC000590699876   -0.1300
12     C12    -4.9812   -4.7773   -1.0392 C.3      1 ZINC000590699876    0.1200
13     H13    -5.6538   -4.4998   -1.8508 H        1 ZINC000590699876    0.1000
14     C14    -5.5652   -4.3443    0.2808 C.2      1 ZINC000590699876    0.5100
15     O15    -4.9557   -3.5711    0.9891 O.2      1 ZINC000590699876   -0.5200
16     N16    -6.7647   -4.8162    0.6743 N.am     1 ZINC000590699876   -0.6100
17     C17    -7.5177   -5.7593   -0.1665 C.3      1 ZINC000590699876    0.1000
18     C18    -7.9216   -6.9620    0.6929 C.3      1 ZINC000590699876    0.0400
19     N19    -8.6342   -6.4892    1.8873 N.3      1 ZINC000590699876   -0.5200
20     C20    -9.1882   -7.6157    2.6502 C.3      1 ZINC000590699876    0.0400
21     C21   -10.1110   -7.0922    3.7203 C.2      1 ZINC000590699876    0.5200
22     O22   -10.2897   -5.8982    3.8361 O.2      1 ZINC000590699876   -0.5100
23     N23   -10.7379   -7.9508    4.5487 N.am     1 ZINC000590699876   -0.6100
24     C24   -10.6147   -9.4021    4.3557 C.3      1 ZINC000590699876    0.1100
25     C25   -12.0186  -10.0100    4.2772 C.3      1 ZINC000590699876   -0.1400
26     C26   -12.8150   -9.6067    5.5203 C.3      1 ZINC000590699876   -0.1200
27     C27   -12.9504   -8.0831    5.5693 C.3      1 ZINC000590699876   -0.1300
28     C28   -11.5525   -7.4534    5.6658 C.3      1 ZINC000590699876    0.1400
29     H29   -11.0912   -7.7312    6.6135 H        1 ZINC000590699876    0.0700
30     C30   -11.6689   -5.9303    5.5789 C.3      1 ZINC000590699876   -0.1400
31     C31    -7.7658   -5.6580    2.7316 C.3      1 ZINC000590699876    0.0400
32     C32    -7.3527   -4.4065    1.9587 C.3      1 ZINC000590699876    0.1200
33     H33     0.1116    1.7093   -1.8731 H        1 ZINC000590699876    0.1000
34     H34    -1.5488    1.6965   -2.5142 H        1 ZINC000590699876    0.0900
35     H35    -1.2739    1.7067   -0.7557 H        1 ZINC000590699876    0.0900
36     H36    -2.8747   -0.3651   -1.3942 H        1 ZINC000590699876    0.4100
37     H37    -1.6610   -2.6767   -2.4713 H        1 ZINC000590699876    0.1000
38     H38    -1.3861   -2.6664   -0.7127 H        1 ZINC000590699876    0.1000
39     H39    -2.4855   -5.4262   -2.4480 H        1 ZINC000590699876    0.0800
40     H40    -1.7220   -4.9051   -0.9148 H        1 ZINC000590699876    0.0800
41     H41    -2.8404   -7.3631   -1.0683 H        1 ZINC000590699876    0.0900
42     H42    -3.1109   -6.3705    0.4035 H        1 ZINC000590699876    0.0800
43     H43    -4.9561   -6.7260   -2.0257 H        1 ZINC000590699876    0.1000
44     H44    -5.3843   -6.7823   -0.2843 H        1 ZINC000590699876    0.0900
45     H45    -8.4110   -5.2705   -0.5552 H        1 ZINC000590699876    0.0800
46     H46    -6.8909   -6.0938   -0.9931 H        1 ZINC000590699876    0.0900
47     H47    -8.5735   -7.6184    0.1164 H        1 ZINC000590699876    0.0900
48     H48    -7.0287   -7.5095    0.9949 H        1 ZINC000590699876    0.0400
49     H49    -9.7443   -8.2704    1.9792 H        1 ZINC000590699876    0.1000
50     H50    -8.3756   -8.1756    3.1131 H        1 ZINC000590699876    0.0600
51     H51   -10.0772   -9.6031    3.4290 H        1 ZINC000590699876    0.0800
52     H52   -10.0742   -9.8379    5.1959 H        1 ZINC000590699876    0.0700
53     H53   -12.5253   -9.6416    3.3852 H        1 ZINC000590699876    0.0700
54     H54   -11.9426  -11.0964    4.2305 H        1 ZINC000590699876    0.0800
55     H55   -13.8062  -10.0582    5.4789 H        1 ZINC000590699876    0.0700
56     H56   -12.2951   -9.9540    6.4131 H        1 ZINC000590699876    0.0600
57     H57   -13.4483   -7.7328    4.6651 H        1 ZINC000590699876    0.0700
58     H58   -13.5376   -7.7980    6.4423 H        1 ZINC000590699876    0.0700
59     H59   -12.3367   -5.5717    6.3623 H        1 ZINC000590699876    0.0400
60     H60   -10.6836   -5.4826    5.7084 H        1 ZINC000590699876    0.0700
61     H61   -12.0695   -5.6515    4.6043 H        1 ZINC000590699876    0.0700
62     H62    -8.3048   -5.3685    3.6338 H        1 ZINC000590699876    0.1100
63     H63    -6.8751   -6.2236    3.0053 H        1 ZINC000590699876    0.0300
64     H64    -6.6189   -3.8448    2.5366 H        1 ZINC000590699876    0.0900
65     H65    -8.2289   -3.7856    1.7720 H        1 ZINC000590699876    0.0800
@<TRIPOS>BOND
1     1     2     1
2     1     33    1
3     1     34    1
4     1     35    1
5     2     3     2
6     2     4     am
7     4     5     1
8     4     36    1
9     5     6     1
10    5     37    1
11    5     38    1
12    6     7     2
13    6     8     am
14    8     12    1
15    8     9     1
16    9     10    1
17    9     39    1
18    9     40    1
19    10    11    1
20    10    41    1
21    10    42    1
22    11    12    1
23    11    43    1
24    11    44    1
25    12    13    1
26    12    14    1
27    14    15    2
28    14    16    am
29    16    32    1
30    16    17    1
31    17    18    1
32    17    45    1
33    17    46    1
34    18    19    1
35    18    47    1
36    18    48    1
37    19    20    1
38    19    31    1
39    20    21    1
40    20    49    1
41    20    50    1
42    21    22    2
43    21    23    am
44    23    28    1
45    23    24    1
46    24    25    1
47    24    51    1
48    24    52    1
49    25    26    1
50    25    53    1
51    25    54    1
52    26    27    1
53    26    55    1
54    26    56    1
55    27    28    1
56    27    57    1
57    27    58    1
58    28    29    1
59    28    30    1
60    30    59    1
61    30    60    1
62    30    61    1
63    31    32    1
64    31    62    1
65    31    63    1
66    32    64    1
67    32    65    1
@<TRIPOS>SUBSTRUCTURE
1   ZINC000590699876 1     RESIDUE    1   A     ZIN   1
@<TRIPOS>MOLECULE
ZINC001362451754
40	42	1	0	0
SMALL
USER_CHARGES
@<TRIPOS>ATOM
1      C1      5.1374    0.9563   -1.5111 C.3      1 ZINC001362451754   -0.1700
2      C2      4.9425    1.8072   -0.2545 C.3      1 ZINC001362451754    0.1400
3      H3      5.2608    1.2496    0.6263 H        1 ZINC001362451754    0.0800
4      C4      5.7579    3.1121   -0.3726 C.3      1 ZINC001362451754   -0.1000
5      H5      6.1559    3.4073    0.5983 H        1 ZINC001362451754    0.1000
6      C6      6.8843    2.9559   -1.3962 C.3      1 ZINC001362451754    0.0900
7      O7      7.6914    4.1351   -1.4001 O.3      1 ZINC001362451754   -0.5700
8      C8      4.7038    4.1369   -0.8684 C.3      1 ZINC001362451754   -0.1200
9      C9      3.4306    3.6576   -0.1320 C.3      1 ZINC001362451754    0.0900
10     N10     3.5283    2.1867   -0.1220 N.am     1 ZINC001362451754   -0.6100
11     C11     2.4922    1.3313   -0.0150 C.2      1 ZINC001362451754    0.6100
12     O12     2.6960    0.1329    0.0423 O.2      1 ZINC001362451754   -0.5200
13     C13     1.1200    1.8446    0.0322 C.2      1 ZINC001362451754   -0.2500
14     C14    -0.0131    1.0811    0.0111 C.2      1 ZINC001362451754   -0.0500
15     C15    -1.1695    1.8228    0.0603 C.2      1 ZINC001362451754   -0.1100
16     C16    -0.9918    3.1473    0.1301 C.2      1 ZINC001362451754   -0.2500
17     C17    -2.1089    4.1565    0.1972 C.3      1 ZINC001362451754    0.2100
18     N18    -2.4504    4.4146    1.5983 N.pl3    1 ZINC001362451754   -0.3700
19     C19    -2.4710    5.6226    2.2015 C.2      1 ZINC001362451754    0.0700
20     C20    -2.8382    5.4334    3.4907 C.2      1 ZINC001362451754   -0.1800
21     Cl21   -3.0198    6.6720    4.6935 Cl       1 ZINC001362451754   -0.0400
22     C22    -3.0395    4.0622    3.6839 C.2      1 ZINC001362451754    0.0700
23     N23    -2.8074    3.4511    2.5505 N.2      1 ZINC001362451754   -0.2700
24     S24     0.6682    3.5414    0.1246 S.3      1 ZINC001362451754    0.2300
25     H25     4.8108    1.5194   -2.3854 H        1 ZINC001362451754    0.0600
26     H26     6.1917    0.7005   -1.6167 H        1 ZINC001362451754    0.0700
27     H27     4.5486    0.0430   -1.4264 H        1 ZINC001362451754    0.0700
28     H28     7.4991    2.0956   -1.1315 H        1 ZINC001362451754    0.0500
29     H29     6.4562    2.8053   -2.3873 H        1 ZINC001362451754    0.0500
30     H30     8.4269    4.1062   -2.0272 H        1 ZINC001362451754    0.3800
31     H31     4.9726    5.1499   -0.5687 H        1 ZINC001362451754    0.0900
32     H32     4.5744    4.0727   -1.9488 H        1 ZINC001362451754    0.0800
33     H33     2.5379    3.9749   -0.6710 H        1 ZINC001362451754    0.0800
34     H34     3.4167    4.0438    0.8872 H        1 ZINC001362451754    0.0800
35     H35    -0.0014    0.0025   -0.0433 H        1 ZINC001362451754    0.1600
36     H36    -2.1497    1.3695    0.0474 H        1 ZINC001362451754    0.1500
37     H37    -1.7887    5.0850   -0.2756 H        1 ZINC001362451754    0.1100
38     H38    -2.9831    3.7661   -0.3238 H        1 ZINC001362451754    0.1100
39     H39    -2.2387    6.5700    1.7380 H        1 ZINC001362451754    0.1800
40     H40    -3.3352    3.5898    4.6091 H        1 ZINC001362451754    0.1900
@<TRIPOS>BOND
1     1     2     1
2     1     25    1
3     1     26    1
4     1     27    1
5     2     3     1
6     2     10    1
7     2     4     1
8     4     5     1
9     4     6     1
10    4     8     1
11    6     7     1
12    6     28    1
13    6     29    1
14    7     30    1
15    8     9     1
16    8     31    1
17    8     32    1
18    9     10    1
19    9     33    1
20    9     34    1
21    10    11    am
22    11    12    2
23    11    13    1
24    13    24    1
25    13    14    2
26    14    15    1
27    14    35    1
28    15    16    2
29    15    36    1
30    16    17    1
31    16    24    1
32    17    18    1
33    17    37    1
34    17    38    1
35    18    23    1
36    18    19    1
37    19    20    2
38    19    39    1
39    20    21    1
40    20    22    1
41    22    23    2
42    22    40    1
@<TRIPOS>SUBSTRUCTURE
1   ZINC001362451754 1     RESIDUE    1   A     ZIN   1
@<TRIPOS>MOLECULE
ZINC000541315701
42	44	1	0	0
SMALL
USER_CHARGES
@<TRIPOS>ATOM
1      C1      0.9644    1.2762    0.0931 C.3      1 ZINC000541315701    0.0800
2      N2      0.3768   -0.0646    0.0367 N.am     1 ZINC000541315701   -0.5700
3      C3     -0.0784   -0.6488    1.1627 C.2      1 ZINC000541315701    0.5400
4      O4     -0.4914   -1.7886    1.1302 O.2      1 ZINC000541315701   -0.5000
5      C5     -0.0743    0.1144    2.4622 C.3      1 ZINC000541315701   -0.1100
6      H6      0.8750    0.6304    2.6061 H        1 ZINC000541315701    0.1300
7      C7     -1.2586    1.1065    2.5250 C.3      1 ZINC000541315701   -0.1500
8      C8     -2.3528    0.3339    3.2282 C.2      1 ZINC000541315701    0.5200
9      O9     -3.5263    0.6403    3.2331 O.2      1 ZINC000541315701   -0.5200
10     N10    -1.8353   -0.7416    3.8464 N.am     1 ZINC000541315701   -0.6100
11     C11    -2.6206   -1.7111    4.6143 C.3      1 ZINC000541315701    0.0900
12     C12    -0.3816   -0.8202    3.6532 C.3      1 ZINC000541315701    0.1900
13     H13    -0.0873   -1.8427    3.4165 H        1 ZINC000541315701    0.1100
14     C14     0.3354   -0.3452    4.8906 C.ar     1 ZINC000541315701   -0.0900
15     C15    -0.1606    0.7273    5.6077 C.ar     1 ZINC000541315701   -0.1000
16     C16     0.4964    1.1635    6.7434 C.ar     1 ZINC000541315701   -0.1000
17     C17     1.6497    0.5276    7.1619 C.ar     1 ZINC000541315701   -0.1000
18     C18     2.1467   -0.5462    6.4445 C.ar     1 ZINC000541315701   -0.0300
19     Cl19    3.5951   -1.3460    6.9700 Cl       1 ZINC000541315701   -0.0600
20     C20     1.4858   -0.9857    5.3115 C.ar     1 ZINC000541315701   -0.0900
21     C21     0.2886   -0.7364   -1.1820 C.ar     1 ZINC000541315701    0.3800
22     N22    -0.8286   -0.6697   -1.8881 N.ar     1 ZINC000541315701   -0.4700
23     C23    -0.9538   -1.2898   -3.0460 C.ar     1 ZINC000541315701    0.1300
24     C24     0.0849   -2.0362   -3.5658 C.ar     1 ZINC000541315701   -0.1600
25     C25     1.2746   -2.1321   -2.8566 C.ar     1 ZINC000541315701   -0.0400
26     C26     1.3778   -1.4661   -1.6474 C.ar     1 ZINC000541315701   -0.1300
27     Br27    2.9727   -1.5581   -0.6356 Br       1 ZINC000541315701   -0.0200
28     H28     1.4929    1.4018    1.0381 H        1 ZINC000541315701    0.0900
29     H29     1.6636    1.4016   -0.7337 H        1 ZINC000541315701    0.0800
30     H30     0.1739    2.0228    0.0168 H        1 ZINC000541315701    0.0700
31     H31    -0.9854    1.9907    3.1009 H        1 ZINC000541315701    0.1200
32     H32    -1.5749    1.3871    1.5203 H        1 ZINC000541315701    0.1100
33     H33    -3.6709   -1.4201    4.6008 H        1 ZINC000541315701    0.0900
34     H34    -2.5119   -2.7004    4.1697 H        1 ZINC000541315701    0.0700
35     H35    -2.2631   -1.7342    5.6438 H        1 ZINC000541315701    0.0600
36     H36    -1.0615    1.2251    5.2805 H        1 ZINC000541315701    0.1300
37     H37     0.1084    2.0016    7.3033 H        1 ZINC000541315701    0.1400
38     H38     2.1632    0.8688    8.0487 H        1 ZINC000541315701    0.1400
39     H39     1.8732   -1.8237    4.7512 H        1 ZINC000541315701    0.1400
40     H40    -1.8812   -1.2128   -3.5942 H        1 ZINC000541315701    0.1700
41     H41    -0.0270   -2.5405   -4.5143 H        1 ZINC000541315701    0.1500
42     H42     2.1020   -2.7096   -3.2415 H        1 ZINC000541315701    0.1500
@<TRIPOS>BOND
1     1     2     1
2     1     28    1
3     1     29    1
4     1     30    1
5     2     3     am
6     2     21    1
7     3     4     2
8     3     5     1
9     5     6     1
10    5     12    1
11    5     7     1
12    7     8     1
13    7     31    1
14    7     32    1
15    8     9     2
16    8     10    am
17    10    11    1
18    10    12    1
19    11    33    1
20    11    34    1
21    11    35    1
22    12    13    1
23    12    14    1
24    14    20    ar
25    14    15    ar
26    15    16    ar
27    15    36    1
28    16    17    ar
29    16    37    1
30    17    18    ar
31    17    38    1
32    18    19    1
33    18    20    ar
34    20    39    1
35    21    26    ar
36    21    22    ar
37    22    23    ar
38    23    24    ar
39    23    40    1
40    24    25    ar
41    24    41    1
42    25    26    ar
43    25    42    1
44    26    27    1
@<TRIPOS>SUBSTRUCTURE
1   ZINC000541315701 1     RESIDUE    1   A     ZIN   1
@<TRIPOS>MOLECULE
ZINC000956479608
52	55	1	0	0
SMALL
USER_CHARGES
@<TRIPOS>ATOM
1      C1     -0.0184    1.5028    0.0103 C.3      1 ZINC000956479608   -0.0900
2      C2      0.0021   -0.0041    0.0020 C.2      1 ZINC000956479608   -0.1100
3      C3      0.0088   -0.8419   -1.0797 C.2      1 ZINC000956479608   -0.1000
4      C4     -0.0022   -0.4529   -2.5025 C.2      1 ZINC000956479608    0.6100
5      O5     -0.0191    0.7230   -2.8112 O.2      1 ZINC000956479608   -0.5000
6      N6      0.0065   -1.4010   -3.4604 N.am     1 ZINC000956479608   -0.7100
7      C7     -0.0044   -1.0147   -4.8735 C.3      1 ZINC000956479608    0.1800
8      C8     -1.2662   -0.2017   -5.1700 C.3      1 ZINC000956479608   -0.1700
9      C9      1.2320   -0.1663   -5.1797 C.3      1 ZINC000956479608   -0.1500
10     C10     2.4930   -0.9709   -4.8493 C.3      1 ZINC000956479608    0.1100
11     N11     2.4427   -2.2478   -5.5743 N.am     1 ZINC000956479608   -0.6100
12     C12     3.4660   -2.6300   -6.3638 C.2      1 ZINC000956479608    0.5500
13     O13     4.4404   -1.9174   -6.4810 O.2      1 ZINC000956479608   -0.5400
14     C14     3.3995   -3.9427   -7.1009 C.3      1 ZINC000956479608   -0.1900
15     H15     2.8853   -4.7498   -6.5791 H        1 ZINC000956479608    0.1200
16     C16     3.2743   -3.8928   -8.6180 C.3      1 ZINC000956479608   -0.1100
17     H17     3.2564   -2.8975   -9.0620 H        1 ZINC000956479608    0.1000
18     C18     2.4235   -4.9251   -9.3414 C.3      1 ZINC000956479608   -0.0900
19     C19     2.7826   -6.3363   -8.8761 C.3      1 ZINC000956479608   -0.1200
20     C20     4.2895   -6.5447   -9.0655 C.3      1 ZINC000956479608   -0.1200
21     C21     5.0295   -5.7668   -7.9772 C.3      1 ZINC000956479608   -0.0900
22     C22     4.5946   -4.3195   -7.9901 C.3      1 ZINC000956479608   -0.1100
23     H23     5.4017   -3.5895   -8.0508 H        1 ZINC000956479608    0.1100
24     C24     1.2559   -3.1004   -5.4219 C.3      1 ZINC000956479608    0.1000
25     C25     0.0087   -2.2720   -5.7459 C.3      1 ZINC000956479608   -0.1400
26     O26     0.0279   -2.0932   -0.5829 O.3      1 ZINC000956479608    0.1200
27     N27     0.0331   -2.0893    0.6259 N.2      1 ZINC000956479608   -0.3400
28     C28     0.0250   -0.8811    1.1092 C.2      1 ZINC000956479608   -0.0100
29     H29     1.0042    1.8801    0.0026 H        1 ZINC000956479608    0.0800
30     H30    -0.5455    1.8639   -0.8728 H        1 ZINC000956479608    0.0900
31     H31    -0.5286    1.8543    0.9071 H        1 ZINC000956479608    0.0800
32     H32     0.0200   -2.3391   -3.2142 H        1 ZINC000956479608    0.4100
33     H33    -1.2760    0.6936   -4.5483 H        1 ZINC000956479608    0.0800
34     H34    -1.2745    0.0858   -6.2213 H        1 ZINC000956479608    0.0700
35     H35    -2.1471   -0.8054   -4.9514 H        1 ZINC000956479608    0.0600
36     H36     1.2373    0.1008   -6.2365 H        1 ZINC000956479608    0.0800
37     H37     1.2100    0.7403   -4.5750 H        1 ZINC000956479608    0.1000
38     H38     3.3754   -0.4102   -5.1575 H        1 ZINC000956479608    0.0900
39     H39     2.5346   -1.1610   -3.7768 H        1 ZINC000956479608    0.0600
40     H40     1.3710   -4.7343   -9.1319 H        1 ZINC000956479608    0.0700
41     H41     2.5963   -4.8453  -10.4146 H        1 ZINC000956479608    0.0700
42     H42     2.5270   -6.4505   -7.8227 H        1 ZINC000956479608    0.0600
43     H43     2.2345   -7.0679   -9.4697 H        1 ZINC000956479608    0.0700
44     H44     4.5256   -7.6056   -8.9819 H        1 ZINC000956479608    0.0700
45     H45     4.5894   -6.1766  -10.0467 H        1 ZINC000956479608    0.0700
46     H46     4.8007   -6.2009   -7.0039 H        1 ZINC000956479608    0.0700
47     H47     6.1031   -5.8294   -8.1550 H        1 ZINC000956479608    0.0700
48     H48     1.3221   -3.9448   -6.1080 H        1 ZINC000956479608    0.0900
49     H49     1.1966   -3.4642   -4.3961 H        1 ZINC000956479608    0.0700
50     H50    -0.8839   -2.8641   -5.5442 H        1 ZINC000956479608    0.0900
51     H51     0.0256   -1.9851   -6.7974 H        1 ZINC000956479608    0.0900
52     H52     0.0271   -0.6033    2.1528 H        1 ZINC000956479608    0.2000
@<TRIPOS>BOND
1     1     2     1
2     1     29    1
3     1     30    1
4     1     31    1
5     2     28    1
6     2     3     2
7     3     4     1
8     3     26    1
9     4     5     2
10    4     6     am
11    6     7     1
12    6     32    1
13    7     25    1
14    7     8     1
15    7     9     1
16    8     33    1
17    8     34    1
18    8     35    1
19    9     10    1
20    9     36    1
21    9     37    1
22    10    11    1
23    10    38    1
24    10    39    1
25    11    12    am
26    11    24    1
27    12    13    2
28    12    14    1
29    14    15    1
30    14    22    1
31    14    16    1
32    16    17    1
33    16    22    1
34    16    18    1
35    18    19    1
36    18    40    1
37    18    41    1
38    19    20    1
39    19    42    1
40    19    43    1
41    20    21    1
42    20    44    1
43    20    45    1
44    21    22    1
45    21    46    1
46    21    47    1
47    22    23    1
48    24    25    1
49    24    48    1
50    24    49    1
51    25    50    1
52    25    51    1
53    26    27    1
54    27    28    2
55    28    52    1
@<TRIPOS>SUBSTRUCTURE
1   ZINC000956479608 1     RESIDUE    1   A     ZIN   1
@<TRIPOS>MOLECULE
ZINC001207290212
47	48	1	0	0
SMALL
USER_CHARGES
@<TRIPOS>ATOM
1      C1     -0.0187    1.5258    0.0104 C.3      1 ZINC001207290212   -0.1500
2      C2      0.0021   -0.0041    0.0020 C.3      1 ZINC001207290212   -0.6300
3      S3      0.8511   -0.5891   -1.4904 S.o2     1 ZINC001207290212    2.6100
4      O4      0.0816   -0.2970   -2.6488 O.2      1 ZINC001207290212   -0.9500
5      O5      2.2357   -0.2745   -1.4322 O.2      1 ZINC001207290212   -0.9500
6      N6      0.8022   -2.2402   -1.3733 N.am     1 ZINC001207290212   -1.1100
7      C7     -0.4838   -2.9402   -1.4216 C.3      1 ZINC001207290212    0.0900
8      C8     -0.2477   -4.4085   -1.6656 C.2      1 ZINC001207290212    0.5100
9      O9      0.8835   -4.8288   -1.7872 O.2      1 ZINC001207290212   -0.5300
10     N10    -1.2935   -5.2545   -1.7487 N.am     1 ZINC001207290212   -0.7200
11     C11    -1.0640   -6.6818   -1.9859 C.3      1 ZINC001207290212    0.1400
12     H12    -0.1439   -7.0027   -1.4975 H        1 ZINC001207290212    0.1000
13     C13    -0.9945   -6.9681   -3.4974 C.3      1 ZINC001207290212    0.0200
14     N14    -2.1126   -7.8817   -3.8178 N.3      1 ZINC001207290212   -0.5100
15     C15    -1.7379   -8.8179   -4.8860 C.3      1 ZINC001207290212    0.1300
16     C16    -1.6106   -8.0697   -6.1879 C.2      1 ZINC001207290212    0.0000
17     C17    -0.4755   -7.5792   -6.7126 C.2      1 ZINC001207290212   -0.0700
18     O18    -0.8011   -6.9862   -7.8779 O.3      1 ZINC001207290212   -0.2000
19     C19    -2.1229   -7.1210   -8.0496 C.2      1 ZINC001207290212    0.1900
20     C20    -2.9126   -6.6041   -9.2244 C.3      1 ZINC001207290212   -0.0600
21     N21    -2.6120   -7.7779   -7.0367 N.2      1 ZINC001207290212   -0.4700
22     C22    -2.4173   -8.6063   -2.5575 C.3      1 ZINC001207290212    0.0400
23     C23    -2.2626   -7.5110   -1.4703 C.3      1 ZINC001207290212   -0.1000
24     H24    -3.1601   -6.8951   -1.4128 H        1 ZINC001207290212    0.0900
25     C25    -1.9508   -8.1385   -0.1102 C.3      1 ZINC001207290212   -0.1400
26     H26     1.0039    1.9031    0.0027 H        1 ZINC001207290212    0.0700
27     H27    -0.5459    1.8868   -0.8726 H        1 ZINC001207290212    0.0700
28     H28    -0.5289    1.8773    0.9072 H        1 ZINC001207290212    0.0800
29     H29     0.5293   -0.3651    0.8851 H        1 ZINC001207290212    0.1300
30     H30    -1.0205   -0.3814    0.0098 H        1 ZINC001207290212    0.1300
31     H31     1.6251   -2.7439   -1.2727 H        1 ZINC001207290212    0.4300
32     H32    -1.0049   -2.8087   -0.4733 H        1 ZINC001207290212    0.1000
33     H33    -1.0903   -2.5306   -2.2294 H        1 ZINC001207290212    0.1100
34     H34    -2.1982   -4.9183   -1.6515 H        1 ZINC001207290212    0.4100
35     H35    -1.1025   -6.0387   -4.0567 H        1 ZINC001207290212    0.0800
36     H36    -0.0447   -7.4436   -3.7421 H        1 ZINC001207290212    0.0500
37     H37    -0.7844   -9.2858   -4.6411 H        1 ZINC001207290212    0.0600
38     H38    -2.5055   -9.5859   -4.9818 H        1 ZINC001207290212    0.1000
39     H39     0.5124   -7.6470   -6.2813 H        1 ZINC001207290212    0.2100
40     H40    -2.2416   -6.0994   -9.9195 H        1 ZINC001207290212    0.0900
41     H41    -3.3994   -7.4380   -9.7302 H        1 ZINC001207290212    0.1000
42     H42    -3.6681   -5.9011   -8.8734 H        1 ZINC001207290212    0.1000
43     H43    -3.4364   -8.9926   -2.5726 H        1 ZINC001207290212    0.0900
44     H44    -1.7017   -9.4122   -2.3945 H        1 ZINC001207290212    0.0500
45     H45    -1.0347   -8.7248   -0.1819 H        1 ZINC001207290212    0.0600
46     H46    -1.8209   -7.3509    0.6321 H        1 ZINC001207290212    0.0600
47     H47    -2.7747   -8.7867    0.1883 H        1 ZINC001207290212    0.0600
@<TRIPOS>BOND
1     1     2     1
2     1     26    1
3     1     27    1
4     1     28    1
5     2     3     1
6     2     29    1
7     2     30    1
8     3     4     2
9     3     5     2
10    3     6     am
11    6     7     1
12    6     31    1
13    7     8     1
14    7     32    1
15    7     33    1
16    8     9     2
17    8     10    am
18    10    11    1
19    10    34    1
20    11    12    1
21    11    23    1
22    11    13    1
23    13    14    1
24    13    35    1
25    13    36    1
26    14    15    1
27    14    22    1
28    15    16    1
29    15    37    1
30    15    38    1
31    16    21    1
32    16    17    2
33    17    18    1
34    17    39    1
35    18    19    1
36    19    20    1
37    19    21    2
38    20    40    1
39    20    41    1
40    20    42    1
41    22    23    1
42    22    43    1
43    22    44    1
44    23    24    1
45    23    25    1
46    25    45    1
47    25    46    1
48    25    47    1
@<TRIPOS>SUBSTRUCTURE
1   ZINC001207290212 1     RESIDUE    1   A     ZIN   1
@<TRIPOS>MOLECULE
ZINC000824084043
65	66	1	0	0
SMALL
USER_CHARGES
@<TRIPOS>ATOM
1      C1     -0.6005    0.6235   -0.1768 C.3      1 ZINC000824084043   -0.1400
2      C2     -0.5936   -0.8861   -0.4259 C.3      1 ZINC000824084043   -0.1000
3      C3      0.0144   -1.5997    0.7832 C.3      1 ZINC000824084043   -0.1300
4      C4     -2.0279   -1.3745   -0.6383 C.3      1 ZINC000824084043    0.1700
5      H5     -2.6215   -1.1555    0.2492 H        1 ZINC000824084043    0.0700
6      C6     -2.6359   -0.6609   -1.8474 C.3      1 ZINC000824084043   -0.1400
7      C7     -4.1078   -1.0552   -1.9853 C.3      1 ZINC000824084043    0.1300
8      N8     -4.6900   -0.3718   -3.1431 N.am     1 ZINC000824084043   -0.6200
9      C9     -4.6505   -1.0050   -4.4636 C.3      1 ZINC000824084043    0.0800
10     C10    -5.2619    0.8393   -2.9933 C.2      1 ZINC000824084043    0.7000
11     O11    -5.2947    1.3649   -1.8974 O.2      1 ZINC000824084043   -0.5800
12     N12    -5.7975    1.4680   -4.0584 N.am     1 ZINC000824084043   -0.7500
13     C13    -6.4192    2.7845   -3.8957 C.3      1 ZINC000824084043    0.1600
14     C14    -5.3459    3.8728   -3.9901 C.3      1 ZINC000824084043   -0.1600
15     C15    -6.0119    5.2475   -3.8990 C.3      1 ZINC000824084043   -0.0100
16     N16    -6.9692    5.4054   -5.0004 N.4      1 ZINC000824084043   -0.3800
17     H17    -6.4924    5.2762   -5.8802 H        1 ZINC000824084043    0.4200
18     C18    -7.5496    6.7541   -4.9532 C.3      1 ZINC000824084043    0.0000
19     C19    -6.4597    7.7887   -5.2408 C.3      1 ZINC000824084043   -0.1200
20     C20    -5.9985    7.6942   -6.7164 C.3      1 ZINC000824084043   -0.1400
21     C21    -5.4162    9.1044   -6.9834 C.3      1 ZINC000824084043   -0.1200
22     C22    -6.3614   10.0549   -6.2198 C.3      1 ZINC000824084043   -0.1300
23     C23    -7.0249    9.2183   -5.1118 C.3      1 ZINC000824084043   -0.1100
24     C24    -8.0408    4.4101   -4.8755 C.3      1 ZINC000824084043    0.0000
25     C25    -7.4529    3.0032   -5.0042 C.3      1 ZINC000824084043   -0.1600
26     N26    -2.0213   -2.8200   -0.8768 N.am     1 ZINC000824084043   -0.7800
27     C27    -2.0217   -3.6749    0.1651 C.2      1 ZINC000824084043    0.6600
28     O28    -2.0276   -3.2440    1.3097 O.co2    1 ZINC000824084043   -0.7200
29     O29    -2.0162   -4.8817   -0.0341 O.co2    1 ZINC000824084043   -0.7300
30     H30     0.4213    0.9714   -0.0255 H        1 ZINC000824084043    0.0500
31     H31    -1.0337    1.1319   -1.0382 H        1 ZINC000824084043    0.0500
32     H32    -1.1941    0.8425    0.7107 H        1 ZINC000824084043    0.0500
33     H33     0.0000   -1.1052   -1.3135 H        1 ZINC000824084043    0.0500
34     H34    -0.5792   -1.3807    1.6707 H        1 ZINC000824084043    0.0600
35     H35     0.0194   -2.6752    0.6057 H        1 ZINC000824084043    0.0700
36     H36     1.0362   -1.2518    0.9345 H        1 ZINC000824084043    0.0300
37     H37    -2.5601    0.4176   -1.7088 H        1 ZINC000824084043    0.0700
38     H38    -2.0963   -0.9501   -2.7492 H        1 ZINC000824084043    0.0600
39     H39    -4.1836   -2.1336   -2.1240 H        1 ZINC000824084043    0.0900
40     H40    -4.6474   -0.7659   -1.0835 H        1 ZINC000824084043    0.0900
41     H41    -5.5449   -1.6124   -4.6022 H        1 ZINC000824084043    0.0600
42     H42    -4.6108   -0.2355   -5.2345 H        1 ZINC000824084043    0.0600
43     H43    -3.7663   -1.6383   -4.5365 H        1 ZINC000824084043    0.0800
44     H44    -5.7713    1.0487   -4.9328 H        1 ZINC000824084043    0.4000
45     H45    -6.9099    2.8382   -2.9239 H        1 ZINC000824084043    0.1100
46     H46    -4.6369    3.7568   -3.1704 H        1 ZINC000824084043    0.1200
47     H47    -4.8212    3.7849   -4.9414 H        1 ZINC000824084043    0.0900
48     H48    -6.5361    5.3344   -2.9473 H        1 ZINC000824084043    0.1300
49     H49    -5.2505    6.0247   -3.9657 H        1 ZINC000824084043    0.1300
50     H50    -8.3366    6.8374   -5.7027 H        1 ZINC000824084043    0.1300
51     H51    -7.9697    6.9344   -3.9637 H        1 ZINC000824084043    0.1300
52     H52    -5.6154    7.6498   -4.5655 H        1 ZINC000824084043    0.1000
53     H53    -5.2297    6.9304   -6.8327 H        1 ZINC000824084043    0.0700
54     H54    -6.8450    7.4951   -7.3737 H        1 ZINC000824084043    0.0800
55     H55    -4.4019    9.1788   -6.5913 H        1 ZINC000824084043    0.0700
56     H56    -5.4311    9.3276   -8.0502 H        1 ZINC000824084043    0.0800
57     H57    -5.7919   10.8733   -5.7794 H        1 ZINC000824084043    0.0700
58     H58    -7.1205   10.4488   -6.8955 H        1 ZINC000824084043    0.0700
59     H59    -8.1060    9.2062   -5.2498 H        1 ZINC000824084043    0.0700
60     H60    -6.7774    9.6307   -4.1337 H        1 ZINC000824084043    0.0800
61     H61    -8.5218    4.5149   -3.9030 H        1 ZINC000824084043    0.1300
62     H62    -8.7773    4.5691   -5.6631 H        1 ZINC000824084043    0.1300
63     H63    -6.9719    2.8973   -5.9765 H        1 ZINC000824084043    0.0900
64     H64    -8.2499    2.2657   -4.9094 H        1 ZINC000824084043    0.1200
65     H65    -2.0165   -3.1617   -1.7846 H        1 ZINC000824084043    0.3600
@<TRIPOS>BOND
1     1     2     1
2     1     30    1
3     1     31    1
4     1     32    1
5     2     3     1
6     2     4     1
7     2     33    1
8     3     34    1
9     3     35    1
10    3     36    1
11    4     5     1
12    4     6     1
13    4     26    1
14    6     7     1
15    6     37    1
16    6     38    1
17    7     8     1
18    7     39    1
19    7     40    1
20    8     9     1
21    8     10    am
22    9     41    1
23    9     42    1
24    9     43    1
25    10    11    2
26    10    12    am
27    12    13    1
28    12    44    1
29    13    25    1
30    13    14    1
31    13    45    1
32    14    15    1
33    14    46    1
34    14    47    1
35    15    16    1
36    15    48    1
37    15    49    1
38    16    17    1
39    16    18    1
40    16    24    1
41    18    19    1
42    18    50    1
43    18    51    1
44    19    23    1
45    19    20    1
46    19    52    1
47    20    21    1
48    20    53    1
49    20    54    1
50    21    22    1
51    21    55    1
52    21    56    1
53    22    23    1
54    22    57    1
55    22    58    1
56    23    59    1
57    23    60    1
58    24    25    1
59    24    61    1
60    24    62    1
61    25    63    1
62    25    64    1
63    26    27    am
64    26    65    1
65    27    28    ar
66    27    29    ar
@<TRIPOS>SUBSTRUCTURE
1   ZINC000824084043 1     RESIDUE    1   A     ZIN   1
@<TRIPOS>MOLECULE
ZINC000863208514
31	31	1	0	0
SMALL
USER_CHARGES
@<TRIPOS>ATOM
1      C1     -0.1738    1.5362   -0.5437 C.3      1 ZINC000863208514    0.0900
2      N2     -0.1407    0.0740   -0.6279 N.am     1 ZINC000863208514   -0.6100
3      C3      1.1123   -0.6129   -0.9508 C.3      1 ZINC000863208514    0.0700
4      C4     -1.2631   -0.6392   -0.4084 C.2      1 ZINC000863208514    0.5100
5      O5     -2.3004   -0.0705   -0.1412 O.2      1 ZINC000863208514   -0.5400
6      C6     -1.2290   -2.1433   -0.4951 C.3      1 ZINC000863208514    0.1100
7      N7     -2.5641   -2.6788   -0.2175 N.am     1 ZINC000863208514   -0.6600
8      C8     -2.7742   -4.0099   -0.2392 C.2      1 ZINC000863208514    0.5600
9      S9     -1.4809   -5.0750   -0.5911 S.2      1 ZINC000863208514   -0.6000
10     N10    -4.0025   -4.5025    0.0161 N.am     1 ZINC000863208514   -0.6300
11     C11    -4.2423   -5.8779   -0.0947 C.ar     1 ZINC000863208514    0.1200
12     C12    -3.3656   -6.7851    0.4829 C.ar     1 ZINC000863208514   -0.0300
13     C13    -3.6048   -8.1426    0.3725 C.ar     1 ZINC000863208514   -0.0200
14     Cl14   -2.5085   -9.2779    1.0956 Cl       1 ZINC000863208514   -0.0300
15     C15    -4.7178   -8.5973   -0.3135 C.ar     1 ZINC000863208514   -0.0600
16     Br16   -5.0412  -10.4545   -0.4621 Br       1 ZINC000863208514   -0.0100
17     C17    -5.5945   -7.6954   -0.8904 C.ar     1 ZINC000863208514   -0.1100
18     C18    -5.3628   -6.3369   -0.7791 C.ar     1 ZINC000863208514    0.1100
19     F19    -6.2188   -5.4565   -1.3424 F        1 ZINC000863208514   -0.1200
20     H20     0.8195    1.9346   -0.7502 H        1 ZINC000863208514    0.0800
21     H21    -0.8811    1.9264   -1.2755 H        1 ZINC000863208514    0.0700
22     H22    -0.4845    1.8356    0.4573 H        1 ZINC000863208514    0.0700
23     H23     1.6521   -0.8357   -0.0304 H        1 ZINC000863208514    0.0700
24     H24     0.8923   -1.5418   -1.4769 H        1 ZINC000863208514    0.0800
25     H25     1.7248    0.0277   -1.5852 H        1 ZINC000863208514    0.0800
26     H26    -0.9184   -2.4426   -1.4961 H        1 ZINC000863208514    0.1200
27     H27    -0.5217   -2.5335    0.2367 H        1 ZINC000863208514    0.1200
28     H28    -3.2969   -2.0753   -0.0182 H        1 ZINC000863208514    0.4100
29     H29    -4.7204   -3.9044    0.2766 H        1 ZINC000863208514    0.4200
30     H30    -2.4968   -6.4313    1.0181 H        1 ZINC000863208514    0.1800
31     H31    -6.4621   -8.0528   -1.4252 H        1 ZINC000863208514    0.1600
@<TRIPOS>BOND
1     1     2     1
2     1     20    1
3     1     21    1
4     1     22    1
5     2     3     1
6     2     4     am
7     3     23    1
8     3     24    1
9     3     25    1
10    4     5     2
11    4     6     1
12    6     7     1
13    6     26    1
14    6     27    1
15    7     8     am
16    7     28    1
17    8     9     2
18    8     10    am
19    10    11    1
20    10    29    1
21    11    18    ar
22    11    12    ar
23    12    13    ar
24    12    30    1
25    13    14    1
26    13    15    ar
27    15    16    1
28    15    17    ar
29    17    18    ar
30    17    31    1
31    18    19    1
@<TRIPOS>SUBSTRUCTURE
1   ZINC000863208514 1     RESIDUE    1   A     ZIN   1
@<TRIPOS>MOLECULE
ZINC000375477402
45	47	1	0	0
SMALL
USER_CHARGES
@<TRIPOS>ATOM
1      O1      0.0021   -0.0041    0.0020 O.2      1 ZINC000375477402   -0.5600
2      C2     -0.0144    1.2117    0.0087 C.2      1 ZINC000375477402    0.7200
3      N3      1.1435    1.9014    0.0014 N.am     1 ZINC000375477402   -0.7300
4      C4      2.4220    1.1862   -0.0147 C.3      1 ZINC000375477402    0.1800
5      H5      2.3225    0.2773   -0.6081 H        1 ZINC000375477402    0.1500
6      C6      3.4833    2.0680   -0.6206 C.ar     1 ZINC000375477402   -0.1300
7      C7      3.3474    3.4428   -0.5766 C.ar     1 ZINC000375477402   -0.0800
8      C8      4.3201    4.2532   -1.1320 C.ar     1 ZINC000375477402   -0.0900
9      C9      5.4305    3.6903   -1.7325 C.ar     1 ZINC000375477402   -0.1100
10     C10     5.5695    2.3140   -1.7782 C.ar     1 ZINC000375477402    0.0800
11     F11     6.6546    1.7630   -2.3649 F        1 ZINC000375477402   -0.1200
12     C12     4.5968    1.5014   -1.2161 C.ar     1 ZINC000375477402    0.1000
13     F13     4.7303    0.1577   -1.2595 F        1 ZINC000375477402   -0.1100
14     C14     2.8194    0.8198    1.4166 C.3      1 ZINC000375477402    0.4400
15     F15     1.8342    0.0012    1.9791 F        1 ZINC000375477402   -0.1600
16     F16     4.0403    0.1369    1.4013 F        1 ZINC000375477402   -0.1700
17     F17     2.9471    1.9864    2.1783 F        1 ZINC000375477402   -0.1800
18     N18    -1.1906    1.8696    0.0179 N.am     1 ZINC000375477402   -0.6300
19     C19    -1.3561    3.3352    0.0202 C.3      1 ZINC000375477402    0.1000
20     C20    -2.7651    3.5783   -0.5790 C.3      1 ZINC000375477402   -0.1200
21     C21    -3.5558    2.3822   -0.0036 C.3      1 ZINC000375477402   -0.1100
22     C22    -2.5234    1.2449    0.0208 C.3      1 ZINC000375477402    0.1400
23     C23    -4.0460    2.7033    1.4028 C.3      1 ZINC000375477402   -0.1100
24     C24    -4.8809    1.5281    1.9248 C.3      1 ZINC000375477402   -0.1600
25     C25    -6.0173    1.2451    0.9386 C.3      1 ZINC000375477402    0.0600
26     O26    -5.4701    0.9542   -0.3492 O.3      1 ZINC000375477402   -0.3800
27     C27    -4.7200    2.0302   -0.9197 C.3      1 ZINC000375477402    0.0800
28     H28     1.1303    2.8713    0.0067 H        1 ZINC000375477402    0.4000
29     H29     2.4803    3.8844   -0.1081 H        1 ZINC000375477402    0.1400
30     H30     4.2121    5.3272   -1.0970 H        1 ZINC000375477402    0.1500
31     H31     6.1895    4.3244   -2.1663 H        1 ZINC000375477402    0.1500
32     H32    -1.3055    3.7208    1.0385 H        1 ZINC000375477402    0.0700
33     H33    -0.5936    3.8038   -0.6019 H        1 ZINC000375477402    0.0700
34     H34    -3.1797    4.5245   -0.2314 H        1 ZINC000375477402    0.0900
35     H35    -2.7384    3.5416   -1.6680 H        1 ZINC000375477402    0.0800
36     H36    -2.6457    0.6136   -0.8594 H        1 ZINC000375477402    0.0800
37     H37    -2.6466    0.6511    0.9265 H        1 ZINC000375477402    0.0700
38     H38    -3.1906    2.8625    2.0593 H        1 ZINC000375477402    0.0700
39     H39    -4.6599    3.6036    1.3779 H        1 ZINC000375477402    0.0700
40     H40    -4.2493    0.6445    2.0165 H        1 ZINC000375477402    0.0700
41     H41    -5.2985    1.7820    2.8991 H        1 ZINC000375477402    0.0800
42     H42    -6.5974    0.3911    1.2882 H        1 ZINC000375477402    0.1000
43     H43    -6.6642    2.1196    0.8692 H        1 ZINC000375477402    0.0500
44     H44    -5.3655    2.9006   -1.0371 H        1 ZINC000375477402    0.0600
45     H45    -4.3366    1.7288   -1.8945 H        1 ZINC000375477402    0.1000
@<TRIPOS>BOND
1     1     2     2
2     2     3     am
3     2     18    am
4     3     4     1
5     3     28    1
6     4     5     1
7     4     6     1
8     4     14    1
9     6     12    ar
10    6     7     ar
11    7     8     ar
12    7     29    1
13    8     9     ar
14    8     30    1
15    9     10    ar
16    9     31    1
17    10    11    1
18    10    12    ar
19    12    13    1
20    14    15    1
21    14    16    1
22    14    17    1
23    18    22    1
24    18    19    1
25    19    20    1
26    19    32    1
27    19    33    1
28    20    21    1
29    20    34    1
30    20    35    1
31    21    27    1
32    21    22    1
33    21    23    1
34    22    36    1
35    22    37    1
36    23    24    1
37    23    38    1
38    23    39    1
39    24    25    1
40    24    40    1
41    24    41    1
42    25    26    1
43    25    42    1
44    25    43    1
45    26    27    1
46    27    44    1
47    27    45    1
@<TRIPOS>SUBSTRUCTURE
1   ZINC000375477402 1     RESIDUE    1   A     ZIN   1
@<TRIPOS>MOLECULE
ZINC001707162141
57	59	1	0	0
SMALL
USER_CHARGES
@<TRIPOS>ATOM
1      C1     -1.2903    1.4269    1.4917 C.3      1 ZINC001707162141   -0.1800
2      C2     -0.3504    1.3360    0.2879 C.3      1 ZINC001707162141    0.1700
3      H3     -0.0363    0.3014    0.1495 H        1 ZINC001707162141    0.1000
4      N4     -1.0512    1.8003   -0.9168 N.3      1 ZINC001707162141   -0.6400
5      C5     -1.8314    0.7135   -1.5237 C.3      1 ZINC001707162141    0.0700
6      C6     -2.5453    1.2342   -2.7727 C.3      1 ZINC001707162141    0.1500
7      H7     -3.0879    2.1477   -2.5294 H        1 ZINC001707162141    0.0700
8      C8     -3.5242    0.1729   -3.2847 C.3      1 ZINC001707162141   -0.1200
9      C9     -4.1315    0.6413   -4.6090 C.3      1 ZINC001707162141   -0.0900
10     H10    -4.6406    1.5933   -4.4583 H        1 ZINC001707162141    0.0700
11     C11    -5.1357   -0.4006   -5.1061 C.3      1 ZINC001707162141   -0.1500
12     C12    -3.0214    0.8157   -5.6479 C.3      1 ZINC001707162141   -0.1300
13     C13    -2.0368    1.8843   -5.1627 C.3      1 ZINC001707162141    0.1100
14     N14    -1.5578    1.5132   -3.8242 N.am     1 ZINC001707162141   -0.6100
15     C15    -0.2376    1.4298   -3.5660 C.2      1 ZINC001707162141    0.5100
16     O16     0.1453    1.0186   -2.4912 O.2      1 ZINC001707162141   -0.4800
17     C17     0.7628    1.8475   -4.6128 C.3      1 ZINC001707162141   -0.1400
18     C18     2.1800    1.6550   -4.0694 C.3      1 ZINC001707162141   -0.0900
19     C19     3.1957    2.0791   -5.1322 C.3      1 ZINC001707162141   -0.0900
20     C20     4.6129    1.8866   -4.5888 C.3      1 ZINC001707162141   -0.1500
21     C21     5.4802    3.1356   -4.4190 C.3      1 ZINC001707162141   -0.1800
22     C22     5.7779    2.1450   -5.5464 C.3      1 ZINC001707162141   -0.1800
23     C23     0.8602    2.2005    0.5294 C.ar     1 ZINC001707162141    0.3500
24     N24     0.7460    3.5089    0.4204 N.ar     1 ZINC001707162141   -0.5000
25     C25     1.7858    4.3000    0.6306 C.ar     1 ZINC001707162141    0.1500
26     C26     3.0080    3.7343    0.9578 C.ar     1 ZINC001707162141   -0.2400
27     C27     3.0901    2.3543    1.0576 C.ar     1 ZINC001707162141    0.1500
28     N28     2.0061    1.6276    0.8386 N.ar     1 ZINC001707162141   -0.5200
29     H29    -2.1659    0.8017    1.3170 H        1 ZINC001707162141    0.0600
30     H30    -0.7703    1.0825    2.3855 H        1 ZINC001707162141    0.0600
31     H31    -1.6044    2.4615    1.6300 H        1 ZINC001707162141    0.0600
32     H32    -1.6378    2.5948   -0.7103 H        1 ZINC001707162141    0.3300
33     H33    -1.1637   -0.1024   -1.8004 H        1 ZINC001707162141    0.1000
34     H34    -2.5693    0.3522   -0.8075 H        1 ZINC001707162141    0.0200
35     H35    -2.9938   -0.7666   -3.4398 H        1 ZINC001707162141    0.0700
36     H36    -4.3179    0.0264   -2.5521 H        1 ZINC001707162141    0.0700
37     H37    -4.6267   -1.3525   -5.2574 H        1 ZINC001707162141    0.0500
38     H38    -5.9265   -0.5249   -4.3663 H        1 ZINC001707162141    0.0600
39     H39    -5.5692   -0.0665   -6.0487 H        1 ZINC001707162141    0.0600
40     H40    -3.4572    1.1267   -6.5973 H        1 ZINC001707162141    0.0700
41     H41    -2.4957   -0.1299   -5.7808 H        1 ZINC001707162141    0.0700
42     H42    -2.5396    2.8502   -5.1161 H        1 ZINC001707162141    0.0600
43     H43    -1.1926    1.9423   -5.8498 H        1 ZINC001707162141    0.0800
44     H44     0.6302    1.2372   -5.5061 H        1 ZINC001707162141    0.0800
45     H45     0.6093    2.8971   -4.8637 H        1 ZINC001707162141    0.0800
46     H46     2.3127    2.2653   -3.1760 H        1 ZINC001707162141    0.0700
47     H47     2.3335    0.6054   -3.8185 H        1 ZINC001707162141    0.0700
48     H48     3.0631    1.4688   -6.0255 H        1 ZINC001707162141    0.0600
49     H49     3.0422    3.1287   -5.3831 H        1 ZINC001707162141    0.0600
50     H50     4.7312    1.0880   -3.8564 H        1 ZINC001707162141    0.1000
51     H51     5.0410    4.0944   -4.6944 H        1 ZINC001707162141    0.0900
52     H52     6.1691    3.1589   -3.5746 H        1 ZINC001707162141    0.0900
53     H53     6.6626    1.5167   -5.4438 H        1 ZINC001707162141    0.0900
54     H54     5.5346    2.4522   -6.5635 H        1 ZINC001707162141    0.0900
55     H55     1.6846    5.3717    0.5437 H        1 ZINC001707162141    0.1600
56     H56     3.8755    4.3538    1.1312 H        1 ZINC001707162141    0.1400
57     H57     4.0262    1.8786    1.3103 H        1 ZINC001707162141    0.1600
@<TRIPOS>BOND
1     1     2     1
2     1     29    1
3     1     30    1
4     1     31    1
5     2     3     1
6     2     4     1
7     2     23    1
8     4     5     1
9     4     32    1
10    5     6     1
11    5     33    1
12    5     34    1
13    6     7     1
14    6     14    1
15    6     8     1
16    8     9     1
17    8     35    1
18    8     36    1
19    9     10    1
20    9     11    1
21    9     12    1
22    11    37    1
23    11    38    1
24    11    39    1
25    12    13    1
26    12    40    1
27    12    41    1
28    13    14    1
29    13    42    1
30    13    43    1
31    14    15    am
32    15    16    2
33    15    17    1
34    17    18    1
35    17    44    1
36    17    45    1
37    18    19    1
38    18    46    1
39    18    47    1
40    19    20    1
41    19    48    1
42    19    49    1
43    20    22    1
44    20    21    1
45    20    50    1
46    21    22    1
47    21    51    1
48    21    52    1
49    22    53    1
50    22    54    1
51    23    28    ar
52    23    24    ar
53    24    25    ar
54    25    26    ar
55    25    55    1
56    26    27    ar
57    26    56    1
58    27    28    ar
59    27    57    1
@<TRIPOS>SUBSTRUCTURE
1   ZINC001707162141 1     RESIDUE    1   A     ZIN   1
@<TRIPOS>MOLECULE
ZINC001328997126
54	56	1	0	0
SMALL
USER_CHARGES
@<TRIPOS>ATOM
1      C1     -0.0187    1.5258    0.0104 C.3      1 ZINC001328997126   -0.1700
2      C2      0.0021   -0.0041    0.0020 C.3      1 ZINC001328997126    0.1400
3      N3      0.6878   -0.4765   -1.2033 N.am     1 ZINC001328997126   -0.6300
4      C4      0.0472   -0.7577   -2.4972 C.3      1 ZINC001328997126    0.0700
5      C5      1.2145   -1.2161   -3.3926 C.3      1 ZINC001328997126    0.0700
6      H6      1.3327   -0.5421   -4.2411 H        1 ZINC001328997126    0.1200
7      C7      0.9887   -2.6501   -3.8759 C.3      1 ZINC001328997126    0.0500
8      N8      2.1131   -3.0630   -4.7262 N.3      1 ZINC001328997126   -0.5300
9      C9      2.4454   -2.0178   -5.7043 C.3      1 ZINC001328997126    0.0500
10     C10     3.6686   -2.4520   -6.5153 C.3      1 ZINC001328997126    0.0600
11     N11     3.3799   -3.7263   -7.1880 N.3      1 ZINC001328997126   -0.5200
12     C12     4.5044   -4.1393   -8.0383 C.3      1 ZINC001328997126    0.0400
13     C13     4.0848   -5.3064   -8.8943 C.2      1 ZINC001328997126    0.5200
14     O14     2.9597   -5.7505   -8.8048 O.2      1 ZINC001328997126   -0.5100
15     N15     4.9597   -5.8567   -9.7592 N.am     1 ZINC001328997126   -0.7300
16     C16     4.5517   -6.9913  -10.5914 C.3      1 ZINC001328997126    0.1600
17     H17     3.8547   -7.6201  -10.0374 H        1 ZINC001328997126    0.1100
18     C18     3.8760   -6.4757  -11.8740 C.3      1 ZINC001328997126   -0.1400
19     C19     3.7760   -7.6847  -12.8396 C.3      1 ZINC001328997126   -0.5800
20     S20     5.4117   -8.4881  -12.6433 S.o2     1 ZINC001328997126    2.4000
21     O21     5.2374   -9.8956  -12.5545 O.2      1 ZINC001328997126   -0.9300
22     O22     6.3196   -7.9459  -13.5925 O.2      1 ZINC001328997126   -0.9300
23     C23     5.7924   -7.8166  -10.9869 C.3      1 ZINC001328997126   -0.6100
24     C24     3.0477   -4.7715   -6.2099 C.3      1 ZINC001328997126    0.0500
25     C25     1.8245   -4.3373   -5.3989 C.3      1 ZINC001328997126    0.0600
26     O26     2.3781   -1.1459   -2.5186 O.3      1 ZINC001328997126   -0.3100
27     C27     2.0018   -0.7175   -1.3085 C.2      1 ZINC001328997126    0.6400
28     O28     2.7791   -0.5684   -0.3866 O.2      1 ZINC001328997126   -0.5200
29     H29     1.0039    1.9031    0.0027 H        1 ZINC001328997126    0.0600
30     H30    -0.5459    1.8868   -0.8726 H        1 ZINC001328997126    0.0600
31     H31    -0.5289    1.8773    0.9072 H        1 ZINC001328997126    0.0700
32     H32     0.5293   -0.3651    0.8851 H        1 ZINC001328997126    0.0900
33     H33    -1.0205   -0.3814    0.0098 H        1 ZINC001328997126    0.0900
34     H34    -0.6913   -1.5527   -2.3941 H        1 ZINC001328997126    0.0900
35     H35    -0.4134    0.1442   -2.9004 H        1 ZINC001328997126    0.0900
36     H36     0.9193   -3.3165   -3.0162 H        1 ZINC001328997126    0.0900
37     H37     0.0628   -2.6988   -4.4490 H        1 ZINC001328997126    0.0600
38     H38     1.5998   -1.8654   -6.3750 H        1 ZINC001328997126    0.0500
39     H39     2.6673   -1.0876   -5.1813 H        1 ZINC001328997126    0.0900
40     H40     3.8993   -1.6912   -7.2609 H        1 ZINC001328997126    0.0800
41     H41     4.5212   -2.5781   -5.8480 H        1 ZINC001328997126    0.0500
42     H42     4.8009   -3.3078   -8.6777 H        1 ZINC001328997126    0.1100
43     H43     5.3458   -4.4330   -7.4106 H        1 ZINC001328997126    0.0700
44     H44     5.8595   -5.5016   -9.8307 H        1 ZINC001328997126    0.4100
45     H45     2.8797   -6.0975  -11.6450 H        1 ZINC001328997126    0.1100
46     H46     4.4806   -5.6879  -12.3236 H        1 ZINC001328997126    0.0900
47     H47     2.9751   -8.3582  -12.5345 H        1 ZINC001328997126    0.1400
48     H48     3.6306   -7.3489  -13.8663 H        1 ZINC001328997126    0.1400
49     H49     6.6750   -7.1784  -11.0309 H        1 ZINC001328997126    0.1400
50     H50     5.9461   -8.6281  -10.2757 H        1 ZINC001328997126    0.1500
51     H51     2.8257   -5.7017   -6.7329 H        1 ZINC001328997126    0.1000
52     H52     3.8933   -4.9239   -5.5392 H        1 ZINC001328997126    0.0400
53     H53     1.5938   -5.0981   -4.6532 H        1 ZINC001328997126    0.0800
54     H54     0.9718   -4.2112   -6.0662 H        1 ZINC001328997126    0.0500
@<TRIPOS>BOND
1     1     2     1
2     1     29    1
3     1     30    1
4     1     31    1
5     2     3     1
6     2     32    1
7     2     33    1
8     3     27    am
9     3     4     1
10    4     5     1
11    4     34    1
12    4     35    1
13    5     6     1
14    5     7     1
15    5     26    1
16    7     8     1
17    7     36    1
18    7     37    1
19    8     25    1
20    8     9     1
21    9     10    1
22    9     38    1
23    9     39    1
24    10    11    1
25    10    40    1
26    10    41    1
27    11    12    1
28    11    24    1
29    12    13    1
30    12    42    1
31    12    43    1
32    13    14    2
33    13    15    am
34    15    16    1
35    15    44    1
36    16    17    1
37    16    23    1
38    16    18    1
39    18    19    1
40    18    45    1
41    18    46    1
42    19    20    1
43    19    47    1
44    19    48    1
45    20    21    2
46    20    22    2
47    20    23    1
48    23    49    1
49    23    50    1
50    24    25    1
51    24    51    1
52    24    52    1
53    25    53    1
54    25    54    1
55    26    27    1
56    27    28    2
@<TRIPOS>SUBSTRUCTURE
1   ZINC001328997126 1     RESIDUE    1   A     ZIN   1
@<TRIPOS>MOLECULE
ZINC000076573199
51	51	1	0	0
SMALL
USER_CHARGES
@<TRIPOS>ATOM
1      C1     -0.1026    1.5116    2.2986 C.3      1 ZINC000076573199   -0.1500
2      C2     -0.2032   -0.0110    2.1856 C.3      1 ZINC000076573199   -0.1200
3      C3      0.8296   -0.5168    1.1764 C.3      1 ZINC000076573199   -0.1000
4      H4      1.8208   -0.1669    1.4646 H        1 ZINC000076573199    0.0700
5      C5      0.4855    0.0159   -0.2159 C.3      1 ZINC000076573199   -0.1500
6      C6      0.8150   -2.0466    1.1551 C.3      1 ZINC000076573199   -0.1200
7      C7      1.3116   -2.5801    2.5003 C.3      1 ZINC000076573199    0.1400
8      H8      0.6876   -2.1837    3.3012 H        1 ZINC000076573199    0.1000
9      C9      1.2347   -4.1082    2.5027 C.3      1 ZINC000076573199   -0.1700
10     N10     2.6996   -2.1607    2.7096 N.am     1 ZINC000076573199   -0.6900
11     C11     3.1902   -2.0546    3.9605 C.2      1 ZINC000076573199    0.5100
12     O12     2.4821   -2.3065    4.9134 O.2      1 ZINC000076573199   -0.5100
13     C13     4.6052   -1.6270    4.1739 C.2      1 ZINC000076573199    0.5100
14     O14     5.3134   -1.3751    3.2208 O.2      1 ZINC000076573199   -0.5000
15     N15     5.0958   -1.5209    5.4247 N.am     1 ZINC000076573199   -0.6400
16     C16     6.4424   -1.2051    5.6225 C.ar     1 ZINC000076573199    0.1500
17     C17     7.0857   -0.3284    4.7573 C.ar     1 ZINC000076573199   -0.1300
18     C18     8.4172   -0.0155    4.9528 C.ar     1 ZINC000076573199   -0.0800
19     C19     9.1132   -0.5725    6.0082 C.ar     1 ZINC000076573199   -0.1200
20     C20    10.5652   -0.2279    6.2177 C.3      1 ZINC000076573199   -0.1100
21     C21     8.4758   -1.4499    6.8770 C.ar     1 ZINC000076573199    0.1600
22     N22     9.1817   -2.0135    7.9456 N.am     1 ZINC000076573199   -0.6700
23     C23     8.8831   -3.2577    8.3690 C.2      1 ZINC000076573199    0.5100
24     C24     9.5610   -3.8207    9.5915 C.3      1 ZINC000076573199   -0.1700
25     O25     8.0687   -3.9243    7.7662 O.2      1 ZINC000076573199   -0.5200
26     C26     7.1378   -1.7623    6.6870 C.ar     1 ZINC000076573199   -0.1400
27     H27    -0.2955    1.9616    1.3247 H        1 ZINC000076573199    0.0600
28     H28    -0.8383    1.8719    3.0175 H        1 ZINC000076573199    0.0500
29     H29     0.8976    1.7858    2.6338 H        1 ZINC000076573199    0.0500
30     H30    -0.0103   -0.4610    3.1594 H        1 ZINC000076573199    0.0600
31     H31    -1.2034   -0.2851    1.8503 H        1 ZINC000076573199    0.0600
32     H32    -0.4686   -0.4007   -0.5388 H        1 ZINC000076573199    0.0600
33     H33     0.4142    1.1031   -0.1816 H        1 ZINC000076573199    0.0600
34     H34     1.2656   -0.2750   -0.9193 H        1 ZINC000076573199    0.0500
35     H35    -0.2015   -2.3978    0.9779 H        1 ZINC000076573199    0.0800
36     H36     1.4673   -2.4051    0.3588 H        1 ZINC000076573199    0.0700
37     H37     1.5885   -4.4883    3.4611 H        1 ZINC000076573199    0.0600
38     H38     0.2020   -4.4203    2.3470 H        1 ZINC000076573199    0.0700
39     H39     1.8588   -4.5047    1.7018 H        1 ZINC000076573199    0.0600
40     H40     3.2656   -1.9594    1.9480 H        1 ZINC000076573199    0.4100
41     H41     4.5139   -1.6637    6.1876 H        1 ZINC000076573199    0.4200
42     H42     6.5445    0.1084    3.9311 H        1 ZINC000076573199    0.1400
43     H43     8.9151    0.6658    4.2788 H        1 ZINC000076573199    0.1300
44     H44    10.6415    0.6452    6.8657 H        1 ZINC000076573199    0.0700
45     H45    11.0753   -1.0713    6.6829 H        1 ZINC000076573199    0.0600
46     H46    11.0289   -0.0083    5.2560 H        1 ZINC000076573199    0.0700
47     H47     9.8860   -1.5088    8.3817 H        1 ZINC000076573199    0.4100
48     H48     9.3404   -3.1895   10.4524 H        1 ZINC000076573199    0.0900
49     H49     9.1946   -4.8302    9.7778 H        1 ZINC000076573199    0.1000
50     H50    10.6384   -3.8494    9.4287 H        1 ZINC000076573199    0.0900
51     H51     6.6402   -2.4440    7.3610 H        1 ZINC000076573199    0.1400
@<TRIPOS>BOND
1     1     2     1
2     1     27    1
3     1     28    1
4     1     29    1
5     2     3     1
6     2     30    1
7     2     31    1
8     3     4     1
9     3     5     1
10    3     6     1
11    5     32    1
12    5     33    1
13    5     34    1
14    6     7     1
15    6     35    1
16    6     36    1
17    7     8     1
18    7     9     1
19    7     10    1
20    9     37    1
21    9     38    1
22    9     39    1
23    10    11    am
24    10    40    1
25    11    12    2
26    11    13    1
27    13    14    2
28    13    15    am
29    15    16    1
30    15    41    1
31    16    26    ar
32    16    17    ar
33    17    18    ar
34    17    42    1
35    18    19    ar
36    18    43    1
37    19    20    1
38    19    21    ar
39    20    44    1
40    20    45    1
41    20    46    1
42    21    22    1
43    21    26    ar
44    22    23    am
45    22    47    1
46    23    24    1
47    23    25    2
48    24    48    1
49    24    49    1
50    24    50    1
51    26    51    1
@<TRIPOS>SUBSTRUCTURE
1   ZINC000076573199 1     RESIDUE    1   A     ZIN   1
@<TRIPOS>MOLECULE
ZINC000459459628
45	46	1	0	0
SMALL
USER_CHARGES
@<TRIPOS>ATOM
1      C1     -0.0343    1.5446   -0.0119 C.3      1 ZINC000459459628   -0.1600
2      C2     -0.0065    0.0148   -0.0098 C.3      1 ZINC000459459628    0.1600
3      H3     -1.0274   -0.3671    0.0003 H        1 ZINC000459459628    0.1100
4      C4      0.7355   -0.4801    1.2334 C.3      1 ZINC000459459628   -0.0900
5      C5      0.6570   -1.9836    1.2999 C.ar     1 ZINC000459459628   -0.0500
6      C6     -0.3933   -2.5920    1.9612 C.ar     1 ZINC000459459628   -0.1200
7      C7     -0.4666   -3.9713    2.0231 C.ar     1 ZINC000459459628   -0.0900
8      C8      0.5102   -4.7432    1.4237 C.ar     1 ZINC000459459628   -0.1600
9      C9      1.5626   -4.1348    0.7604 C.ar     1 ZINC000459459628    0.1000
10     F10     2.5183   -4.8885    0.1740 F        1 ZINC000459459628   -0.1400
11     C11     1.6322   -2.7537    0.6946 C.ar     1 ZINC000459459628   -0.1500
12     N12     0.6817   -0.4628   -1.2117 N.am     1 ZINC000459459628   -0.6200
13     C13     2.0754   -0.0838   -1.4571 C.3      1 ZINC000459459628    0.0700
14     C14     0.0326   -1.2507   -2.0916 C.2      1 ZINC000459459628    0.7100
15     O15    -1.1241   -1.5652   -1.8880 O.2      1 ZINC000459459628   -0.5700
16     N16     0.6658   -1.6901   -3.1973 N.am     1 ZINC000459459628   -0.6800
17     C17     0.0227   -2.5843   -4.0646 C.ar     1 ZINC000459459628    0.1500
18     C18    -1.3423   -2.4926   -4.2651 C.ar     1 ZINC000459459628   -0.0400
19     C19    -1.9794   -3.3857   -5.1309 C.ar     1 ZINC000459459628   -0.0300
20     C20    -3.3927   -3.2950   -5.3426 C.1      1 ZINC000459459628    0.2600
21     N21    -4.5139   -3.2231   -5.5106 N.1      1 ZINC000459459628   -0.4100
22     C22    -1.2344   -4.3669   -5.7897 C.ar     1 ZINC000459459628   -0.0500
23     C23     0.1263   -4.4534   -5.5851 C.ar     1 ZINC000459459628   -0.1700
24     C24     0.7609   -3.5637   -4.7303 C.ar     1 ZINC000459459628    0.1100
25     O25     2.1017   -3.6533   -4.5324 O.3      1 ZINC000459459628   -0.3200
26     C26     2.7938   -4.6866   -5.2362 C.3      1 ZINC000459459628    0.4100
27     F27     2.2750   -5.9317   -4.8652 F        1 ZINC000459459628   -0.1900
28     F28     2.6285   -4.5041   -6.6134 F        1 ZINC000459459628   -0.1900
29     H29     0.9866    1.9265   -0.0220 H        1 ZINC000459459628    0.0600
30     H30    -0.5628    1.8971   -0.8976 H        1 ZINC000459459628    0.0600
31     H31    -0.5463    1.8999    0.8823 H        1 ZINC000459459628    0.0700
32     H32     1.7799   -0.1728    1.1795 H        1 ZINC000459459628    0.0800
33     H33     0.2764   -0.0525    2.1247 H        1 ZINC000459459628    0.0900
34     H34    -1.1570   -1.9894    2.4303 H        1 ZINC000459459628    0.1300
35     H35    -1.2875   -4.4455    2.5404 H        1 ZINC000459459628    0.1300
36     H36     0.4531   -5.8206    1.4727 H        1 ZINC000459459628    0.1300
37     H37     2.4523   -2.2782    0.1773 H        1 ZINC000459459628    0.1300
38     H38     2.7376   -0.8226   -1.0057 H        1 ZINC000459459628    0.0600
39     H39     2.2567   -0.0414   -2.5311 H        1 ZINC000459459628    0.0700
40     H40     2.2688    0.8944   -1.0170 H        1 ZINC000459459628    0.0800
41     H41     1.5664   -1.3876   -3.3930 H        1 ZINC000459459628    0.4100
42     H42    -1.9148   -1.7329   -3.7536 H        1 ZINC000459459628    0.1600
43     H43    -1.7246   -5.0581   -6.4592 H        1 ZINC000459459628    0.1400
44     H44     0.7004   -5.2130   -6.0948 H        1 ZINC000459459628    0.1500
45     H45     3.8547   -4.6467   -4.9892 H        1 ZINC000459459628    0.1900
@<TRIPOS>BOND
1     1     2     1
2     1     29    1
3     1     30    1
4     1     31    1
5     2     3     1
6     2     4     1
7     2     12    1
8     4     5     1
9     4     32    1
10    4     33    1
11    5     11    ar
12    5     6     ar
13    6     7     ar
14    6     34    1
15    7     8     ar
16    7     35    1
17    8     9     ar
18    8     36    1
19    9     10    1
20    9     11    ar
21    11    37    1
22    12    13    1
23    12    14    am
24    13    38    1
25    13    39    1
26    13    40    1
27    14    15    2
28    14    16    am
29    16    17    1
30    16    41    1
31    17    24    ar
32    17    18    ar
33    18    19    ar
34    18    42    1
35    19    20    1
36    19    22    ar
37    20    21    3
38    22    23    ar
39    22    43    1
40    23    24    ar
41    23    44    1
42    24    25    1
43    25    26    1
44    26    27    1
45    26    28    1
46    26    45    1
@<TRIPOS>SUBSTRUCTURE
1   ZINC000459459628 1     RESIDUE    1   A     ZIN   1
@<TRIPOS>MOLECULE
ZINC001064463188
51	54	1	0	0
SMALL
USER_CHARGES
@<TRIPOS>ATOM
1      C1      0.0564    0.8351   -0.2720 C.3      1 ZINC001064463188    0.0400
2      O2      0.1472   -0.5888   -0.1929 O.3      1 ZINC001064463188   -0.3000
3      C3      0.7637   -1.1064    0.8973 C.ar     1 ZINC001064463188    0.3900
4      C4      0.8975   -2.4860    1.0452 C.ar     1 ZINC001064463188   -0.2800
5      C5      1.5334   -2.9700    2.1732 C.ar     1 ZINC001064463188    0.2000
6      N6      1.9936   -2.1153    3.0740 N.ar     1 ZINC001064463188   -0.5800
7      C7      1.8519   -0.8087    2.9065 C.ar     1 ZINC001064463188    0.5300
8      N8      2.3468    0.0529    3.8699 N.3      1 ZINC001064463188   -0.4500
9      C9      1.3060    0.9627    4.3430 C.3      1 ZINC001064463188    0.0700
10     C10     1.8600    2.3883    4.4518 C.3      1 ZINC001064463188   -0.1200
11     C11     2.9069    2.5102    5.5426 C.3      1 ZINC001064463188    0.1400
12     H12     3.3184    3.5195    5.5513 H        1 ZINC001064463188    0.0900
13     C13     2.3301    2.1705    6.9184 C.3      1 ZINC001064463188   -0.1300
14     C14     2.5480    0.6534    7.0565 C.3      1 ZINC001064463188   -0.1300
15     C15     3.5840    0.2967    5.9849 C.3      1 ZINC001064463188    0.1200
16     H16     4.4615   -0.1470    6.4553 H        1 ZINC001064463188    0.0900
17     C17     2.9845   -0.7007    4.9816 C.3      1 ZINC001064463188    0.0600
18     N18     3.9863    1.5232    5.2457 N.am     1 ZINC001064463188   -0.6000
19     C19     5.0822    1.6943    4.4800 C.2      1 ZINC001064463188    0.5800
20     O20     5.2808    2.7620    3.9326 O.2      1 ZINC001064463188   -0.5400
21     C21     6.0380    0.5897    4.3064 C.2      1 ZINC001064463188   -0.2200
22     C22     7.0881    0.7389    3.5041 C.2      1 ZINC001064463188    0.0000
23     C23     7.9807   -0.4378    3.2046 C.3      1 ZINC001064463188   -0.1300
24     C24     7.3854    2.0846    2.8944 C.3      1 ZINC001064463188   -0.1200
25     C25     8.6081    2.1917    1.9809 C.3      1 ZINC001064463188   -0.1900
26     C26     7.2004    2.2318    1.3828 C.3      1 ZINC001064463188   -0.1600
27     N27     1.2536   -0.3064    1.8367 N.ar     1 ZINC001064463188   -0.5900
28     H28     1.0587    1.2637   -0.2712 H        1 ZINC001064463188    0.0600
29     H29    -0.4581    1.1159   -1.1910 H        1 ZINC001064463188    0.1000
30     H30    -0.5005    1.2119    0.5859 H        1 ZINC001064463188    0.0600
31     H31     0.5127   -3.1616    0.2956 H        1 ZINC001064463188    0.1500
32     H32     1.6531   -4.0335    2.3184 H        1 ZINC001064463188    0.1800
33     H33     0.4711    0.9520    3.6424 H        1 ZINC001064463188    0.0800
34     H34     0.9574    0.6348    5.3223 H        1 ZINC001064463188    0.0600
35     H35     2.3075    2.6683    3.4982 H        1 ZINC001064463188    0.0800
36     H36     1.0393    3.0716    4.6704 H        1 ZINC001064463188    0.0800
37     H37     2.8686    2.7058    7.7004 H        1 ZINC001064463188    0.0800
38     H38     1.2669    2.4079    6.9553 H        1 ZINC001064463188    0.0900
39     H39     2.9326    0.4154    8.0483 H        1 ZINC001064463188    0.0800
40     H40     1.6156    0.1193    6.8736 H        1 ZINC001064463188    0.0800
41     H41     2.2238   -1.3042    5.4767 H        1 ZINC001064463188    0.0700
42     H42     3.7720   -1.3476    4.5950 H        1 ZINC001064463188    0.0900
43     H43     5.8869   -0.3425    4.8305 H        1 ZINC001064463188    0.1200
44     H44     7.6105   -0.9593    2.3219 H        1 ZINC001064463188    0.0800
45     H45     8.9957   -0.0861    3.0198 H        1 ZINC001064463188    0.0800
46     H46     7.9815   -1.1191    4.0555 H        1 ZINC001064463188    0.0700
47     H47     7.1450    2.9463    3.5172 H        1 ZINC001064463188    0.1400
48     H48     9.1724    3.1240    2.0027 H        1 ZINC001064463188    0.1000
49     H49     9.1974    1.2889    1.8209 H        1 ZINC001064463188    0.1000
50     H50     6.8637    1.3553    0.8293 H        1 ZINC001064463188    0.0900
51     H51     6.8387    3.1904    1.0110 H        1 ZINC001064463188    0.1000
@<TRIPOS>BOND
1     1     2     1
2     1     28    1
3     1     29    1
4     1     30    1
5     2     3     1
6     3     27    ar
7     3     4     ar
8     4     5     ar
9     4     31    1
10    5     6     ar
11    5     32    1
12    6     7     ar
13    7     8     1
14    7     27    ar
15    8     17    1
16    8     9     1
17    9     10    1
18    9     33    1
19    9     34    1
20    10    11    1
21    10    35    1
22    10    36    1
23    11    12    1
24    11    18    1
25    11    13    1
26    13    14    1
27    13    37    1
28    13    38    1
29    14    15    1
30    14    39    1
31    14    40    1
32    15    16    1
33    15    17    1
34    15    18    1
35    17    41    1
36    17    42    1
37    18    19    am
38    19    20    2
39    19    21    1
40    21    22    2
41    21    43    1
42    22    23    1
43    22    24    1
44    23    44    1
45    23    45    1
46    23    46    1
47    24    26    1
48    24    25    1
49    24    47    1
50    25    26    1
51    25    48    1
52    25    49    1
53    26    50    1
54    26    51    1
@<TRIPOS>SUBSTRUCTURE
1   ZINC001064463188 1     RESIDUE    1   A     ZIN   1
@<TRIPOS>MOLECULE
ZINC000583220082
52	54	1	0	0
SMALL
USER_CHARGES
@<TRIPOS>ATOM
1      C1     -1.9422    1.4063   -0.1890 C.3      1 ZINC000583220082    0.0800
2      N2     -1.0652    0.2329   -0.2046 N.am     1 ZINC000583220082   -0.6300
3      C3     -0.3605   -0.1712    1.0145 C.3      1 ZINC000583220082    0.0800
4      C4     -0.9068   -0.4749   -1.3406 C.2      1 ZINC000583220082    0.5100
5      O5     -1.4902   -0.1403   -2.3499 O.2      1 ZINC000583220082   -0.5300
6      C6     -0.0047   -1.6819   -1.3567 C.3      1 ZINC000583220082   -0.1000
7      C7     -0.0021   -2.2888   -2.7361 C.ar     1 ZINC000583220082   -0.0800
8      C8     -0.9312   -3.2590   -3.0646 C.ar     1 ZINC000583220082   -0.0800
9      C9     -0.9317   -3.8173   -4.3277 C.ar     1 ZINC000583220082   -0.1400
10     C10     0.0022   -3.4027   -5.2690 C.ar     1 ZINC000583220082    0.1400
11     N11     0.0043   -3.9651   -6.5481 N.am     1 ZINC000583220082   -0.6400
12     C12     1.1548   -4.0502   -7.2449 C.2      1 ZINC000583220082    0.5100
13     O13     2.2044   -3.7327   -6.7246 O.2      1 ZINC000583220082   -0.4900
14     C14     1.1382   -4.5354   -8.6574 C.2      1 ZINC000583220082    0.5100
15     O15     0.0806   -4.7382   -9.2170 O.2      1 ZINC000583220082   -0.5100
16     N16     2.2978   -4.7479   -9.3106 N.am     1 ZINC000583220082   -0.5800
17     C17     3.5905   -4.5095   -8.6508 C.3      1 ZINC000583220082    0.0600
18     C18     4.4630   -5.7572   -8.8243 C.3      1 ZINC000583220082    0.0300
19     N19     4.5471   -6.0976  -10.2508 N.3      1 ZINC000583220082   -0.4300
20     C20     5.4545   -7.1189  -10.4639 C.2      1 ZINC000583220082    0.2900
21     N21     5.7843   -7.6694  -11.6132 N.2      1 ZINC000583220082   -0.5700
22     C22     6.6796   -8.6345  -11.5734 C.2      1 ZINC000583220082    0.5400
23     N23     7.0962   -9.2809  -12.7364 N.pl3    1 ZINC000583220082   -0.8200
24     N24     7.1637   -8.9646  -10.4058 N.2      1 ZINC000583220082   -0.5500
25     S25     6.4029   -7.9404   -9.2835 S.3      1 ZINC000583220082    0.2000
26     C26     3.2272   -6.4441  -10.7947 C.3      1 ZINC000583220082    0.0500
27     C27     2.3041   -5.2303  -10.7000 C.3      1 ZINC000583220082    0.1100
28     C28     0.9339   -2.4275   -4.9357 C.ar     1 ZINC000583220082   -0.1200
29     C29     0.9256   -1.8701   -3.6723 C.ar     1 ZINC000583220082   -0.0800
30     H30    -1.3652    2.2946   -0.4464 H        1 ZINC000583220082    0.0500
31     H31    -2.7437    1.2707   -0.9152 H        1 ZINC000583220082    0.0800
32     H32    -2.3702    1.5268    0.8062 H        1 ZINC000583220082    0.0700
33     H33    -0.6107    0.5154    1.8233 H        1 ZINC000583220082    0.0800
34     H34    -0.6613   -1.1820    1.2899 H        1 ZINC000583220082    0.0600
35     H35     0.7147   -0.1476    0.8374 H        1 ZINC000583220082    0.0600
36     H36     1.0086   -1.3818   -1.0899 H        1 ZINC000583220082    0.1000
37     H37    -0.3674   -2.4162   -0.6374 H        1 ZINC000583220082    0.1000
38     H38    -1.6570   -3.5808   -2.3324 H        1 ZINC000583220082    0.1300
39     H39    -1.6571   -4.5754   -4.5834 H        1 ZINC000583220082    0.1300
40     H40    -0.8223   -4.2942   -6.9346 H        1 ZINC000583220082    0.4200
41     H41     4.0829   -3.6518   -9.1092 H        1 ZINC000583220082    0.0900
42     H42     3.4304   -4.3193   -7.5896 H        1 ZINC000583220082    0.1700
43     H43     5.4628   -5.5585   -8.4382 H        1 ZINC000583220082    0.1100
44     H44     4.0203   -6.5896   -8.2773 H        1 ZINC000583220082    0.0700
45     H45     6.7256   -9.0218  -13.5945 H        1 ZINC000583220082    0.4200
46     H46     7.7567   -9.9896  -12.6873 H        1 ZINC000583220082    0.4200
47     H47     3.3308   -6.7434  -11.8377 H        1 ZINC000583220082    0.1100
48     H48     2.8017   -7.2668  -10.2202 H        1 ZINC000583220082    0.0600
49     H49     1.2941   -5.5145  -10.9952 H        1 ZINC000583220082    0.1100
50     H50     2.6710   -4.4394  -11.3542 H        1 ZINC000583220082    0.0900
51     H51     1.6613   -2.1029   -5.6651 H        1 ZINC000583220082    0.1400
52     H52     1.6495   -1.1119   -3.4125 H        1 ZINC000583220082    0.1300
@<TRIPOS>BOND
1     1     2     1
2     1     30    1
3     1     31    1
4     1     32    1
5     2     3     1
6     2     4     am
7     3     33    1
8     3     34    1
9     3     35    1
10    4     5     2
11    4     6     1
12    6     7     1
13    6     36    1
14    6     37    1
15    7     29    ar
16    7     8     ar
17    8     9     ar
18    8     38    1
19    9     10    ar
20    9     39    1
21    10    11    1
22    10    28    ar
23    11    12    am
24    11    40    1
25    12    13    2
26    12    14    1
27    14    15    2
28    14    16    am
29    16    27    1
30    16    17    1
31    17    18    1
32    17    41    1
33    17    42    1
34    18    19    1
35    18    43    1
36    18    44    1
37    19    20    1
38    19    26    1
39    20    25    1
40    20    21    2
41    21    22    1
42    22    23    1
43    22    24    2
44    23    45    1
45    23    46    1
46    24    25    1
47    26    27    1
48    26    47    1
49    26    48    1
50    27    49    1
51    27    50    1
52    28    29    ar
53    28    51    1
54    29    52    1
@<TRIPOS>SUBSTRUCTURE
1   ZINC000583220082 1     RESIDUE    1   A     ZIN   1
@<TRIPOS>MOLECULE
ZINC000623695407
55	57	1	0	0
SMALL
USER_CHARGES
@<TRIPOS>ATOM
1      C1     -0.0173    1.4248    0.0099 C.3      1 ZINC000623695407    0.0300
2      O2      0.0021   -0.0041    0.0020 O.3      1 ZINC000623695407   -0.3200
3      C3     -1.2003   -0.6375    0.0101 C.ar     1 ZINC000623695407    0.1300
4      C4     -2.3746    0.1011    0.0195 C.ar     1 ZINC000623695407   -0.2100
5      C5     -3.5956   -0.5451    0.0272 C.ar     1 ZINC000623695407   -0.0600
6      C6     -3.6478   -1.9268    0.0260 C.ar     1 ZINC000623695407   -0.1100
7      C7     -4.9811   -2.6292    0.0350 C.3      1 ZINC000623695407    0.0600
8      N8     -5.4244   -2.8558   -1.3471 N.3      1 ZINC000623695407   -0.4600
9      C9     -5.0243   -4.1951   -1.8175 C.3      1 ZINC000623695407    0.0000
10     C10    -6.4051   -4.3147   -2.4776 C.3      1 ZINC000623695407   -0.1300
11     C11    -6.8231   -3.3222   -1.3837 C.3      1 ZINC000623695407    0.0100
12     H12    -7.1446   -3.8038   -0.4602 H        1 ZINC000623695407    0.0900
13     C13    -7.8091   -2.2583   -1.8704 C.3      1 ZINC000623695407    0.1600
14     N14    -7.7072   -1.0714   -1.0177 N.am     1 ZINC000623695407   -0.7400
15     C15    -8.4869    0.0010   -1.2595 C.2      1 ZINC000623695407    0.7100
16     O16    -9.2749   -0.0166   -2.1853 O.2      1 ZINC000623695407   -0.5900
17     N17    -8.3931    1.0929   -0.4750 N.am     1 ZINC000623695407   -0.7400
18     C18    -9.2407    2.2586   -0.7379 C.3      1 ZINC000623695407    0.1700
19     H19    -9.3855    2.3676   -1.8127 H        1 ZINC000623695407    0.0900
20     C20   -10.5975    2.0665   -0.0573 C.3      1 ZINC000623695407   -0.1600
21     C21    -8.5657    3.5151   -0.1842 C.3      1 ZINC000623695407   -0.0900
22     C22    -7.2875    3.7730   -0.9396 C.ar     1 ZINC000623695407   -0.0300
23     C23    -6.0882    3.2227   -0.5140 C.ar     1 ZINC000623695407   -0.1700
24     C24    -4.9361    3.4813   -1.2323 C.ar     1 ZINC000623695407    0.1000
25     N25    -4.9691    4.2413   -2.3094 N.ar     1 ZINC000623695407   -0.4900
26     C26    -6.0913    4.7811   -2.7432 C.ar     1 ZINC000623695407    0.1000
27     C27    -7.2838    4.5617   -2.0800 C.ar     1 ZINC000623695407   -0.1700
28     C28    -2.4788   -2.6651    0.0162 C.ar     1 ZINC000623695407   -0.0700
29     C29    -1.2554   -2.0237    0.0032 C.ar     1 ZINC000623695407   -0.1500
30     H30     1.0053    1.8021    0.0021 H        1 ZINC000623695407    0.1000
31     H31    -0.5445    1.7859   -0.8732 H        1 ZINC000623695407    0.0600
32     H32    -0.5275    1.7763    0.9067 H        1 ZINC000623695407    0.0600
33     H33    -2.3343    1.1803    0.0211 H        1 ZINC000623695407    0.1300
34     H34    -4.5101    0.0294    0.0345 H        1 ZINC000623695407    0.1200
35     H35    -4.8840   -3.5865    0.5470 H        1 ZINC000623695407    0.0600
36     H36    -5.7136   -2.0117    0.5548 H        1 ZINC000623695407    0.0700
37     H37    -4.2015   -4.1764   -2.5322 H        1 ZINC000623695407    0.0900
38     H38    -4.8657   -4.9096   -1.0098 H        1 ZINC000623695407    0.0700
39     H39    -6.4528   -3.9107   -3.4889 H        1 ZINC000623695407    0.1000
40     H40    -6.8607   -5.3005   -2.3837 H        1 ZINC000623695407    0.0800
41     H41    -7.5729   -1.9877   -2.8996 H        1 ZINC000623695407    0.0700
42     H42    -8.8236   -2.6542   -1.8225 H        1 ZINC000623695407    0.0700
43     H43    -7.0786   -1.0574   -0.2791 H        1 ZINC000623695407    0.3900
44     H44    -7.7645    1.1069    0.2636 H        1 ZINC000623695407    0.3900
45     H45   -11.2280    2.9339   -0.2529 H        1 ZINC000623695407    0.0700
46     H46   -11.0783    1.1714   -0.4518 H        1 ZINC000623695407    0.0700
47     H47   -10.4526    1.9575    1.0175 H        1 ZINC000623695407    0.0600
48     H48    -9.2346    4.3679   -0.3000 H        1 ZINC000623695407    0.1000
49     H49    -8.3405    3.3709    0.8725 H        1 ZINC000623695407    0.0800
50     H50    -6.0546    2.6001    0.3678 H        1 ZINC000623695407    0.1300
51     H51    -3.9978    3.0564   -0.9074 H        1 ZINC000623695407    0.1500
52     H52    -6.0791    5.3984   -3.6293 H        1 ZINC000623695407    0.1600
53     H53    -8.1998    5.0062   -2.4403 H        1 ZINC000623695407    0.1400
54     H54    -2.5223   -3.7443    0.0150 H        1 ZINC000623695407    0.1200
55     H55    -0.3426   -2.6008   -0.0045 H        1 ZINC000623695407    0.1300
@<TRIPOS>BOND
1     1     2     1
2     1     30    1
3     1     31    1
4     1     32    1
5     2     3     1
6     3     29    ar
7     3     4     ar
8     4     5     ar
9     4     33    1
10    5     6     ar
11    5     34    1
12    6     7     1
13    6     28    ar
14    7     8     1
15    7     35    1
16    7     36    1
17    8     11    1
18    8     9     1
19    9     10    1
20    9     37    1
21    9     38    1
22    10    11    1
23    10    39    1
24    10    40    1
25    11    12    1
26    11    13    1
27    13    14    1
28    13    41    1
29    13    42    1
30    14    15    am
31    14    43    1
32    15    16    2
33    15    17    am
34    17    18    1
35    17    44    1
36    18    19    1
37    18    20    1
38    18    21    1
39    20    45    1
40    20    46    1
41    20    47    1
42    21    22    1
43    21    48    1
44    21    49    1
45    22    27    ar
46    22    23    ar
47    23    24    ar
48    23    50    1
49    24    25    ar
50    24    51    1
51    25    26    ar
52    26    27    ar
53    26    52    1
54    27    53    1
55    28    29    ar
56    28    54    1
57    29    55    1
@<TRIPOS>SUBSTRUCTURE
1   ZINC000623695407 1     RESIDUE    1   A     ZIN   1
@<TRIPOS>MOLECULE
ZINC000550217006
48	50	1	0	0
SMALL
USER_CHARGES
@<TRIPOS>ATOM
1      C1     -0.0187    1.5258    0.0104 C.3      1 ZINC000550217006   -0.1500
2      C2      0.0021   -0.0041    0.0020 C.3      1 ZINC000550217006    0.0500
3      O3      0.6932   -0.4774    1.1597 O.3      1 ZINC000550217006   -0.3100
4      C4      0.8020   -1.8242    1.3057 C.ar     1 ZINC000550217006    0.1400
5      C5      0.2598   -2.6724    0.3514 C.ar     1 ZINC000550217006   -0.2100
6      C6      0.3722   -4.0413    0.5018 C.ar     1 ZINC000550217006   -0.0800
7      C7      1.0238   -4.5657    1.6025 C.ar     1 ZINC000550217006   -0.1600
8      C8      1.5648   -3.7222    2.5555 C.ar     1 ZINC000550217006   -0.0700
9      C9      1.4605   -2.3530    2.4066 C.ar     1 ZINC000550217006   -0.1200
10     C10     2.0507   -1.4343    3.4452 C.3      1 ZINC000550217006   -0.0800
11     C11     0.9679   -1.0400    4.4517 C.3      1 ZINC000550217006    0.1300
12     N12     1.5416   -0.1470    5.4614 N.am     1 ZINC000550217006   -0.7200
13     C13     0.7678    0.3313    6.4558 C.2      1 ZINC000550217006    0.5600
14     O14    -0.4059    0.0218    6.5149 O.2      1 ZINC000550217006   -0.5300
15     C15     1.3476    1.2339    7.4763 C.ar     1 ZINC000550217006   -0.0800
16     C16     2.6951    1.5954    7.4068 C.ar     1 ZINC000550217006   -0.1000
17     C17     3.2293    2.4318    8.3561 C.ar     1 ZINC000550217006   -0.0500
18     C18     2.4350    2.9322    9.4011 C.ar     1 ZINC000550217006   -0.1300
19     C19     1.0886    2.5763    9.4720 C.ar     1 ZINC000550217006    0.1800
20     C20     0.5515    1.7279    8.5021 C.ar     1 ZINC000550217006   -0.0900
21     N21     0.2307    3.0307   10.4590 N.am     1 ZINC000550217006   -0.6600
22     C22     0.5288    3.1528   11.7489 C.2      1 ZINC000550217006    0.5100
23     O23    -0.3321    3.5215   12.5194 O.2      1 ZINC000550217006   -0.5100
24     C24     1.9021    2.8468   12.2808 C.3      1 ZINC000550217006    0.0900
25     N25     2.8569    3.7858   11.6919 N.am     1 ZINC000550217006   -0.7100
26     C26     3.0827    3.8176   10.3797 C.2      1 ZINC000550217006    0.5600
27     O27     3.8796    4.6352    9.9624 O.2      1 ZINC000550217006   -0.5200
28     H28     1.0039    1.9031    0.0027 H        1 ZINC000550217006    0.0700
29     H29    -0.5459    1.8868   -0.8726 H        1 ZINC000550217006    0.0800
30     H30    -0.5289    1.8773    0.9072 H        1 ZINC000550217006    0.0700
31     H31    -1.0205   -0.3814    0.0098 H        1 ZINC000550217006    0.0600
32     H32     0.5123   -0.3556   -0.8948 H        1 ZINC000550217006    0.0600
33     H33    -0.2500   -2.2632   -0.5083 H        1 ZINC000550217006    0.1300
34     H34    -0.0498   -4.7021   -0.2409 H        1 ZINC000550217006    0.1300
35     H35     1.1103   -5.6360    1.7185 H        1 ZINC000550217006    0.1300
36     H36     2.0731   -4.1343    3.4147 H        1 ZINC000550217006    0.1300
37     H37     2.8607   -1.9462    3.9648 H        1 ZINC000550217006    0.0800
38     H38     2.4390   -0.5389    2.9598 H        1 ZINC000550217006    0.0800
39     H39     0.1579   -0.5282    3.9321 H        1 ZINC000550217006    0.0700
40     H40     0.5796   -1.9354    4.9371 H        1 ZINC000550217006    0.0700
41     H41     2.4785    0.1001    5.4143 H        1 ZINC000550217006    0.4000
42     H42     3.3160    1.2175    6.6079 H        1 ZINC000550217006    0.1400
43     H43     4.2718    2.7077    8.2987 H        1 ZINC000550217006    0.1500
44     H44    -0.4900    1.4468    8.5543 H        1 ZINC000550217006    0.1500
45     H45    -0.6654    3.2822   10.1857 H        1 ZINC000550217006    0.4200
46     H46     1.9059    2.9542   13.3655 H        1 ZINC000550217006    0.1300
47     H47     2.1791    1.8275   12.0119 H        1 ZINC000550217006    0.1000
48     H48     3.3362    4.3995   12.2702 H        1 ZINC000550217006    0.4200
@<TRIPOS>BOND
1     1     2     1
2     1     28    1
3     1     29    1
4     1     30    1
5     2     3     1
6     2     31    1
7     2     32    1
8     3     4     1
9     4     9     ar
10    4     5     ar
11    5     6     ar
12    5     33    1
13    6     7     ar
14    6     34    1
15    7     8     ar
16    7     35    1
17    8     9     ar
18    8     36    1
19    9     10    1
20    10    11    1
21    10    37    1
22    10    38    1
23    11    12    1
24    11    39    1
25    11    40    1
26    12    13    am
27    12    41    1
28    13    14    2
29    13    15    1
30    15    20    ar
31    15    16    ar
32    16    17    ar
33    16    42    1
34    17    18    ar
35    17    43    1
36    18    26    1
37    18    19    ar
38    19    20    ar
39    19    21    1
40    20    44    1
41    21    22    am
42    21    45    1
43    22    23    2
44    22    24    1
45    24    25    1
46    24    46    1
47    24    47    1
48    25    26    am
49    25    48    1
50    26    27    2
@<TRIPOS>SUBSTRUCTURE
1   ZINC000550217006 1     RESIDUE    1   A     ZIN   1
@<TRIPOS>MOLECULE
ZINC001191386213
50	53	1	0	0
SMALL
USER_CHARGES
@<TRIPOS>ATOM
1      C1     -2.1938    1.4701    0.6085 C.3      1 ZINC001191386213   -0.1700
2      C2     -2.1691   -0.0367    0.6077 C.2      1 ZINC001191386213    0.5100
3      O3     -3.0611   -0.6581    1.1454 O.2      1 ZINC001191386213   -0.5200
4      N4     -1.1558   -0.6938    0.0094 N.am     1 ZINC001191386213   -0.6800
5      C5     -1.0812   -2.0888    0.0915 C.ar     1 ZINC001191386213    0.1400
6      C6      0.1561   -2.7146    0.1778 C.ar     1 ZINC001191386213   -0.1400
7      C7      0.2335   -4.0921    0.2595 C.ar     1 ZINC001191386213   -0.1000
8      C8     -0.9180   -4.8536    0.2554 C.ar     1 ZINC001191386213   -0.1100
9      C9     -2.1634   -4.2341    0.1687 C.ar     1 ZINC001191386213    0.0100
10     C10    -3.4025   -5.0517    0.1642 C.2      1 ZINC001191386213    0.0700
11     N11    -4.6284   -4.6050   -0.0104 N.2      1 ZINC001191386213   -0.2500
12     N12    -5.4763   -5.5680    0.0412 N.pl3    1 ZINC001191386213   -0.3800
13     C13    -4.8251   -6.7491    0.2619 C.2      1 ZINC001191386213   -0.0400
14     C14    -5.4360   -8.0826    0.3850 C.2      1 ZINC001191386213    0.6100
15     O15    -4.7350   -9.0569    0.5819 O.2      1 ZINC001191386213   -0.5100
16     N16    -6.7722   -8.2240    0.2796 N.am     1 ZINC001191386213   -0.6200
17     C17    -7.7323   -7.1374    0.0369 C.3      1 ZINC001191386213    0.0800
18     C18    -9.1415   -7.7664    0.0198 C.3      1 ZINC001191386213   -0.1200
19     C19    -8.9439   -9.0833    0.8161 C.3      1 ZINC001191386213   -0.0600
20     H20    -8.9933   -8.9018    1.8897 H        1 ZINC001191386213    0.1000
21     C21    -9.9525  -10.1227    0.3999 C.ar     1 ZINC001191386213   -0.1100
22     C22    -9.9936  -10.5603   -0.9101 C.ar     1 ZINC001191386213   -0.0900
23     C23   -10.9190  -11.5139   -1.2923 C.ar     1 ZINC001191386213   -0.1300
24     C24   -11.8042  -12.0303   -0.3648 C.ar     1 ZINC001191386213   -0.0900
25     C25   -11.7652  -11.5938    0.9461 C.ar     1 ZINC001191386213   -0.1500
26     C26   -10.8348  -10.6439    1.3314 C.ar     1 ZINC001191386213    0.1100
27     F27   -10.7958  -10.2164    2.6124 F        1 ZINC001191386213   -0.1400
28     C28    -7.5125   -9.4948    0.3822 C.3      1 ZINC001191386213    0.1200
29     C29    -3.4793   -6.4454    0.3397 C.2      1 ZINC001191386213   -0.1300
30     C30    -2.2427   -2.8467    0.0926 C.ar     1 ZINC001191386213   -0.1000
31     H31    -3.0822    1.8186    1.1352 H        1 ZINC001191386213    0.1000
32     H32    -1.3026    1.8478    1.1098 H        1 ZINC001191386213    0.0900
33     H33    -2.2144    1.8337   -0.4188 H        1 ZINC001191386213    0.0900
34     H34    -0.4782   -0.1997   -0.4782 H        1 ZINC001191386213    0.4100
35     H35     1.0598   -2.1232    0.1806 H        1 ZINC001191386213    0.1300
36     H36     1.1976   -4.5742    0.3264 H        1 ZINC001191386213    0.1300
37     H37    -0.8537   -5.9298    0.3190 H        1 ZINC001191386213    0.1300
38     H38    -6.4361   -5.4715   -0.0606 H        1 ZINC001191386213    0.4400
39     H39    -7.6658   -6.3986    0.8356 H        1 ZINC001191386213    0.0700
40     H40    -7.5247   -6.6670   -0.9242 H        1 ZINC001191386213    0.0800
41     H41    -9.8597   -7.1171    0.5205 H        1 ZINC001191386213    0.0900
42     H42    -9.4573   -7.9772   -1.0019 H        1 ZINC001191386213    0.0900
43     H43    -9.3029  -10.1570   -1.6359 H        1 ZINC001191386213    0.1300
44     H44   -10.9504  -11.8554   -2.3164 H        1 ZINC001191386213    0.1300
45     H45   -12.5268  -12.7749   -0.6645 H        1 ZINC001191386213    0.1300
46     H46   -12.4574  -11.9969    1.6705 H        1 ZINC001191386213    0.1400
47     H47    -7.5396  -10.0030   -0.5817 H        1 ZINC001191386213    0.0800
48     H48    -7.0567  -10.1355    1.1371 H        1 ZINC001191386213    0.0900
49     H49    -2.6615   -7.1308    0.5063 H        1 ZINC001191386213    0.1700
50     H50    -3.2056   -2.3622    0.0252 H        1 ZINC001191386213    0.1500
@<TRIPOS>BOND
1     1     2     1
2     1     31    1
3     1     32    1
4     1     33    1
5     2     3     2
6     2     4     am
7     4     5     1
8     4     34    1
9     5     30    ar
10    5     6     ar
11    6     7     ar
12    6     35    1
13    7     8     ar
14    7     36    1
15    8     9     ar
16    8     37    1
17    9     10    1
18    9     30    ar
19    10    29    1
20    10    11    2
21    11    12    1
22    12    13    1
23    12    38    1
24    13    14    1
25    13    29    2
26    14    15    2
27    14    16    am
28    16    28    1
29    16    17    1
30    17    18    1
31    17    39    1
32    17    40    1
33    18    19    1
34    18    41    1
35    18    42    1
36    19    20    1
37    19    21    1
38    19    28    1
39    21    26    ar
40    21    22    ar
41    22    23    ar
42    22    43    1
43    23    24    ar
44    23    44    1
45    24    25    ar
46    24    45    1
47    25    26    ar
48    25    46    1
49    26    27    1
50    28    47    1
51    28    48    1
52    29    49    1
53    30    50    1
@<TRIPOS>SUBSTRUCTURE
1   ZINC001191386213 1     RESIDUE    1   A     ZIN   1
@<TRIPOS>MOLECULE
ZINC000486710336
63	67	1	0	0
SMALL
USER_CHARGES
@<TRIPOS>ATOM
1      C1     -0.1392    1.5479    0.0788 C.3      1 ZINC000486710336    0.1000
2      N2     -0.1201    0.0833    0.0523 N.pl3    1 ZINC000486710336   -0.3900
3      N3     -0.1339   -0.7216   -1.0940 N.2      1 ZINC000486710336   -0.2800
4      C4     -0.1082   -1.9751   -0.7195 C.2      1 ZINC000486710336    0.1000
5      C5     -0.1116   -3.1694   -1.6386 C.3      1 ZINC000486710336   -0.0100
6      C6      0.6404   -4.3566   -0.9875 C.3      1 ZINC000486710336   -0.1200
7      C7      0.0391   -5.5835   -1.7171 C.3      1 ZINC000486710336   -0.1200
8      C8     -1.4528   -5.2294   -1.8862 C.3      1 ZINC000486710336   -0.1200
9      C9     -1.5486   -3.6944   -1.8363 C.3      1 ZINC000486710336   -0.1100
10     C10    -0.0772   -2.0191    0.6764 C.2      1 ZINC000486710336   -0.2600
11     C11    -0.0800   -0.7364    1.1349 C.2      1 ZINC000486710336    0.3000
12     N12    -0.0543   -0.3386    2.4686 N.am     1 ZINC000486710336   -0.6200
13     C13    -0.0236   -1.2644    3.4475 C.2      1 ZINC000486710336    0.5100
14     O14    -0.0184   -2.4453    3.1662 O.2      1 ZINC000486710336   -0.4800
15     C15     0.0039   -0.8377    4.8780 C.2      1 ZINC000486710336    0.5300
16     O16    -0.0013    0.3429    5.1593 O.2      1 ZINC000486710336   -0.5100
17     N17     0.0346   -1.7635    5.8570 N.am     1 ZINC000486710336   -0.5800
18     C18     0.0510   -3.2252    5.6675 C.3      1 ZINC000486710336    0.1000
19     C19     0.0484   -3.8670    7.0727 C.3      1 ZINC000486710336   -0.0600
20     H20     1.0633   -4.1065    7.3902 H        1 ZINC000486710336    0.1000
21     C21    -0.8213   -5.0975    7.0967 C.ar     1 ZINC000486710336   -0.0700
22     C22    -1.9571   -5.1566    6.3110 C.ar     1 ZINC000486710336   -0.1100
23     C23    -2.7548   -6.2853    6.3330 C.ar     1 ZINC000486710336   -0.1200
24     C24    -2.4165   -7.3551    7.1404 C.ar     1 ZINC000486710336   -0.1200
25     C25    -1.2803   -7.2964    7.9255 C.ar     1 ZINC000486710336   -0.1200
26     C26    -0.4802   -6.1694    7.9002 C.ar     1 ZINC000486710336   -0.1100
27     C27    -0.5578   -2.7388    7.9626 C.3      1 ZINC000486710336   -0.0800
28     H28    -0.2793   -2.8338    9.0121 H        1 ZINC000486710336    0.1100
29     C29    -2.0730   -2.7849    7.7545 C.3      1 ZINC000486710336   -0.1100
30     C30    -2.7232   -1.4902    8.2363 C.3      1 ZINC000486710336   -0.1200
31     C31    -2.1748   -0.3264    7.4037 C.3      1 ZINC000486710336   -0.1100
32     C32    -0.6718   -0.2152    7.6598 C.3      1 ZINC000486710336   -0.1400
33     C33     0.0638   -1.4944    7.2970 C.3      1 ZINC000486710336    0.1400
34     H34     1.1056   -1.3943    7.6018 H        1 ZINC000486710336    0.0800
35     H35     0.8833    1.9250    0.0579 H        1 ZINC000486710336    0.0800
36     H36    -0.6816    1.9200   -0.7903 H        1 ZINC000486710336    0.1000
37     H37    -0.6334    1.8884    0.9887 H        1 ZINC000486710336    0.0800
38     H38     0.3359   -2.9120   -2.5986 H        1 ZINC000486710336    0.0900
39     H39     1.7120   -4.2837   -1.1733 H        1 ZINC000486710336    0.0700
40     H40     0.4350   -4.4043    0.0819 H        1 ZINC000486710336    0.0800
41     H41     0.5118   -5.7183   -2.6900 H        1 ZINC000486710336    0.0700
42     H42     0.1516   -6.4815   -1.1096 H        1 ZINC000486710336    0.0700
43     H43    -1.8169   -5.5952   -2.8463 H        1 ZINC000486710336    0.0600
44     H44    -2.0346   -5.6664   -1.0747 H        1 ZINC000486710336    0.0600
45     H45    -2.1770   -3.3866   -1.0005 H        1 ZINC000486710336    0.0700
46     H46    -1.9593   -3.3153   -2.7721 H        1 ZINC000486710336    0.0700
47     H47    -0.0515   -2.9116    1.2840 H        1 ZINC000486710336    0.1700
48     H48    -0.0584    0.6050    2.6934 H        1 ZINC000486710336    0.4200
49     H49    -0.8353   -3.5378    5.1153 H        1 ZINC000486710336    0.0900
50     H50     0.9507   -3.5192    5.1270 H        1 ZINC000486710336    0.0800
51     H51    -2.2213   -4.3207    5.6802 H        1 ZINC000486710336    0.1200
52     H52    -3.6425   -6.3311    5.7196 H        1 ZINC000486710336    0.1200
53     H53    -3.0402   -8.2367    7.1581 H        1 ZINC000486710336    0.1200
54     H54    -1.0162   -8.1321    8.5566 H        1 ZINC000486710336    0.1200
55     H55     0.4075   -6.1235    8.5136 H        1 ZINC000486710336    0.1200
56     H56    -2.2858   -2.9206    6.6941 H        1 ZINC000486710336    0.0700
57     H57    -2.4868   -3.6242    8.3134 H        1 ZINC000486710336    0.0700
58     H58    -3.8038   -1.5540    8.1084 H        1 ZINC000486710336    0.0600
59     H59    -2.4858   -1.3311    9.2882 H        1 ZINC000486710336    0.0600
60     H60    -2.3537   -0.5160    6.3454 H        1 ZINC000486710336    0.0500
61     H61    -2.6669    0.6002    7.6993 H        1 ZINC000486710336    0.0600
62     H62    -0.2685    0.6062    7.0676 H        1 ZINC000486710336    0.1000
63     H63    -0.5040   -0.0081    8.7167 H        1 ZINC000486710336    0.0700
@<TRIPOS>BOND
1     1     2     1
2     1     35    1
3     1     36    1
4     1     37    1
5     2     11    1
6     2     3     1
7     3     4     2
8     4     5     1
9     4     10    1
10    5     9     1
11    5     6     1
12    5     38    1
13    6     7     1
14    6     39    1
15    6     40    1
16    7     8     1
17    7     41    1
18    7     42    1
19    8     9     1
20    8     43    1
21    8     44    1
22    9     45    1
23    9     46    1
24    10    11    2
25    10    47    1
26    11    12    1
27    12    13    am
28    12    48    1
29    13    14    2
30    13    15    1
31    15    16    2
32    15    17    am
33    17    33    1
34    17    18    1
35    18    19    1
36    18    49    1
37    18    50    1
38    19    20    1
39    19    21    1
40    19    27    1
41    21    26    ar
42    21    22    ar
43    22    23    ar
44    22    51    1
45    23    24    ar
46    23    52    1
47    24    25    ar
48    24    53    1
49    25    26    ar
50    25    54    1
51    26    55    1
52    27    28    1
53    27    33    1
54    27    29    1
55    29    30    1
56    29    56    1
57    29    57    1
58    30    31    1
59    30    58    1
60    30    59    1
61    31    32    1
62    31    60    1
63    31    61    1
64    32    33    1
65    32    62    1
66    32    63    1
67    33    34    1
@<TRIPOS>SUBSTRUCTURE
1   ZINC000486710336 1     RESIDUE    1   A     ZIN   1
@<TRIPOS>MOLECULE
ZINC000876376999
54	56	1	0	0
SMALL
USER_CHARGES
@<TRIPOS>ATOM
1      C1      0.8418   -0.4314    1.2473 C.3      1 ZINC000876376999   -0.1500
2      C2      0.0837    0.1060    0.0318 C.3      1 ZINC000876376999   -0.1100
3      C3      0.7842   -0.3512   -1.2492 C.3      1 ZINC000876376999   -0.0700
4      C4      2.2506    0.0839   -1.2125 C.3      1 ZINC000876376999    0.0900
5      O5      2.3239    1.4927   -0.9851 O.3      1 ZINC000876376999   -0.5600
6      C6      0.7057   -1.8757   -1.3582 C.3      1 ZINC000876376999   -0.1100
7      C7      1.4346   -2.3368   -2.6224 C.3      1 ZINC000876376999   -0.1400
8      C8      0.7516   -1.7284   -3.8514 C.3      1 ZINC000876376999    0.1100
9      N9      0.6935   -0.2696   -3.6864 N.am     1 ZINC000876376999   -0.6300
10     C10     1.1806    0.5493   -4.6396 C.2      1 ZINC000876376999    0.7100
11     O11     1.0436    1.7529   -4.5353 O.2      1 ZINC000876376999   -0.5800
12     N12     1.8195    0.0339   -5.7086 N.am     1 ZINC000876376999   -0.7500
13     C13     2.4486    0.9256   -6.6860 C.3      1 ZINC000876376999    0.1400
14     C14     3.1011    0.0903   -7.7943 C.3      1 ZINC000876376999   -0.1100
15     C15     2.1408   -0.9516   -8.2999 C.3      1 ZINC000876376999   -0.1100
16     C16     1.4031   -0.6100   -9.5998 C.3      1 ZINC000876376999   -0.5200
17     H17     0.6916   -1.3843   -9.9190 H        1 ZINC000876376999    0.1500
18     C18     0.7462    0.7767   -9.4121 C.3      1 ZINC000876376999   -0.1200
19     C19     1.7448    1.8997   -9.6705 C.3      1 ZINC000876376999   -0.1200
20     C20     3.1343    1.3366  -10.0478 C.3      1 ZINC000876376999   -0.5300
21     H21     3.7090    2.0089  -10.7000 H        1 ZINC000876376999    0.1500
22     C22     3.8574    0.9785   -8.7442 C.3      1 ZINC000876376999   -0.1000
23     S23     2.7109   -0.2661  -10.8496 S.o2     1 ZINC000876376999    2.3700
24     O24     3.7831   -1.1862  -10.7047 O.2      1 ZINC000876376999   -0.9300
25     O25     2.1232   -0.0364  -12.1226 O.2      1 ZINC000876376999   -0.9300
26     C26     0.0939    0.2797   -2.4626 C.3      1 ZINC000876376999    0.1400
27     H27     0.7878   -1.5200    1.2570 H        1 ZINC000876376999    0.0500
28     H28     1.8848   -0.1199    1.1918 H        1 ZINC000876376999    0.0600
29     H29     0.3928   -0.0372    2.1589 H        1 ZINC000876376999    0.0500
30     H30    -0.9376   -0.2747    0.0431 H        1 ZINC000876376999    0.0600
31     H31     0.0658    1.1952    0.0672 H        1 ZINC000876376999    0.0700
32     H32     2.7654   -0.4413   -0.4080 H        1 ZINC000876376999    0.0500
33     H33     2.7246   -0.1557   -2.1644 H        1 ZINC000876376999    0.0400
34     H34     3.2260    1.8391   -0.9497 H        1 ZINC000876376999    0.3800
35     H35     1.1745   -2.3269   -0.4837 H        1 ZINC000876376999    0.0700
36     H36    -0.3390   -2.1828   -1.4089 H        1 ZINC000876376999    0.0700
37     H37     2.4732   -2.0085   -2.5837 H        1 ZINC000876376999    0.0700
38     H38     1.3983   -3.4242   -2.6872 H        1 ZINC000876376999    0.0800
39     H39     1.3245   -1.9724   -4.7460 H        1 ZINC000876376999    0.0700
40     H40    -0.2590   -2.1263   -3.9422 H        1 ZINC000876376999    0.0700
41     H41     1.8627   -0.9274   -5.8308 H        1 ZINC000876376999    0.3900
42     H42     1.6925    1.5792   -7.1210 H        1 ZINC000876376999    0.0800
43     H43     3.2091    1.5292   -6.1905 H        1 ZINC000876376999    0.0700
44     H44     3.8979   -0.4937   -7.2526 H        1 ZINC000876376999    0.0900
45     H45     2.6872   -1.8998   -8.4460 H        1 ZINC000876376999    0.0900
46     H46     1.3918   -1.1590   -7.5159 H        1 ZINC000876376999    0.0900
47     H47    -0.0780    0.8739  -10.1255 H        1 ZINC000876376999    0.0800
48     H48     0.3420    0.8638   -8.4078 H        1 ZINC000876376999    0.0900
49     H49     1.3756    2.5085  -10.5016 H        1 ZINC000876376999    0.0800
50     H50     1.8264    2.5328   -8.7918 H        1 ZINC000876376999    0.0900
51     H51     4.1251    1.9143   -8.2233 H        1 ZINC000876376999    0.0900
52     H52     4.8173    0.4951   -8.9974 H        1 ZINC000876376999    0.0900
53     H53    -0.9704    0.0454   -2.4402 H        1 ZINC000876376999    0.0600
54     H54     0.2328    1.3606   -2.4409 H        1 ZINC000876376999    0.1000
@<TRIPOS>BOND
1     1     2     1
2     1     27    1
3     1     28    1
4     1     29    1
5     2     3     1
6     2     30    1
7     2     31    1
8     3     26    1
9     3     4     1
10    3     6     1
11    4     5     1
12    4     32    1
13    4     33    1
14    5     34    1
15    6     7     1
16    6     35    1
17    6     36    1
18    7     8     1
19    7     37    1
20    7     38    1
21    8     9     1
22    8     39    1
23    8     40    1
24    9     10    am
25    9     26    1
26    10    11    2
27    10    12    am
28    12    13    1
29    12    41    1
30    13    14    1
31    13    42    1
32    13    43    1
33    14    22    1
34    14    15    1
35    14    44    1
36    15    16    1
37    15    45    1
38    15    46    1
39    16    17    1
40    16    23    1
41    16    18    1
42    18    19    1
43    18    47    1
44    18    48    1
45    19    20    1
46    19    49    1
47    19    50    1
48    20    21    1
49    20    22    1
50    20    23    1
51    22    51    1
52    22    52    1
53    23    24    2
54    23    25    2
55    26    53    1
56    26    54    1
@<TRIPOS>SUBSTRUCTURE
1   ZINC000876376999 1     RESIDUE    1   A     ZIN   1
@<TRIPOS>MOLECULE
ZINC000655982608
53	57	1	0	0
SMALL
USER_CHARGES
@<TRIPOS>ATOM
1      C1     -0.2503    1.3465   -0.1451 C.3      1 ZINC000655982608   -0.1900
2      C2     -0.0009   -0.1419    0.1067 C.3      1 ZINC000655982608    0.0800
3      H3      0.5939   -0.5537   -0.7086 H        1 ZINC000655982608    0.1000
4      C4      0.7528   -0.3165    1.4267 C.3      1 ZINC000655982608   -0.0300
5      C5      1.0894   -1.7721    1.6242 C.2      1 ZINC000655982608    0.2000
6      N6      2.1361   -2.4030    1.1490 N.2      1 ZINC000655982608   -0.4800
7      C7      2.0187   -3.6726    1.5771 C.2      1 ZINC000655982608    0.1700
8      C8      2.9775   -4.8008    1.2962 C.3      1 ZINC000655982608   -0.0100
9      H9      3.8169   -4.4556    0.6926 H        1 ZINC000655982608    0.1300
10     C10     3.4706   -5.4482    2.6110 C.3      1 ZINC000655982608   -0.1400
11     C11     3.5664   -6.9225    2.2855 C.2      1 ZINC000655982608    0.5200
12     O12     4.1724   -7.7413    2.9437 O.2      1 ZINC000655982608   -0.5000
13     N13     2.8816   -7.1930    1.1608 N.am     1 ZINC000655982608   -0.5600
14     C14     2.7797   -8.4642    0.5851 C.ar     1 ZINC000655982608    0.1600
15     C15     2.1602   -8.6221   -0.6478 C.ar     1 ZINC000655982608   -0.1600
16     C16     2.0611   -9.8782   -1.2134 C.ar     1 ZINC000655982608   -0.0900
17     C17     2.5775  -10.9780   -0.5532 C.ar     1 ZINC000655982608   -0.1400
18     C18     3.1945  -10.8243    0.6747 C.ar     1 ZINC000655982608   -0.0900
19     C19     3.3027   -9.5699    1.2426 C.ar     1 ZINC000655982608   -0.1600
20     C20     2.2550   -5.9833    0.6135 C.3      1 ZINC000655982608    0.1100
21     N21     0.9269   -3.7476    2.2777 N.2      1 ZINC000655982608   -0.3700
22     O22     0.3811   -2.6652    2.3219 O.3      1 ZINC000655982608    0.0900
23     N23    -1.2868   -0.8483    0.1799 N.3      1 ZINC000655982608   -0.4700
24     C24    -2.1340   -0.2965    1.2595 C.3      1 ZINC000655982608    0.0300
25     C25    -3.5635   -0.5163    0.7133 C.3      1 ZINC000655982608   -0.0800
26     C26    -3.3502   -0.5435   -0.7871 C.ar     1 ZINC000655982608   -0.1400
27     C27    -4.2329   -0.4195   -1.8389 C.ar     1 ZINC000655982608   -0.0800
28     C28    -3.7712   -0.4761   -3.1419 C.ar     1 ZINC000655982608   -0.1400
29     C29    -2.4227   -0.6567   -3.3877 C.ar     1 ZINC000655982608   -0.0900
30     C30    -1.5356   -0.7835   -2.3388 C.ar     1 ZINC000655982608   -0.1400
31     C31    -1.9932   -0.7308   -1.0235 C.ar     1 ZINC000655982608    0.1000
32     H32     0.7014    1.8515   -0.3101 H        1 ZINC000655982608    0.0700
33     H33    -0.8820    1.4652   -1.0254 H        1 ZINC000655982608    0.0700
34     H34    -0.7480    1.7831    0.7208 H        1 ZINC000655982608    0.0700
35     H35     1.6720    0.2687    1.4004 H        1 ZINC000655982608    0.1200
36     H36     0.1270    0.0267    2.2505 H        1 ZINC000655982608    0.1100
37     H37     4.4488   -5.0541    2.8868 H        1 ZINC000655982608    0.1200
38     H38     2.7509   -5.2804    3.4122 H        1 ZINC000655982608    0.1200
39     H39     1.7560   -7.7636   -1.1635 H        1 ZINC000655982608    0.1200
40     H40     1.5795  -10.0016   -2.1721 H        1 ZINC000655982608    0.1300
41     H41     2.4985  -11.9592   -0.9975 H        1 ZINC000655982608    0.1200
42     H42     3.5963  -11.6853    1.1881 H        1 ZINC000655982608    0.1300
43     H43     3.7847   -9.4505    2.2017 H        1 ZINC000655982608    0.1500
44     H44     1.1925   -5.9662    0.8560 H        1 ZINC000655982608    0.0900
45     H45     2.3969   -5.9407   -0.4664 H        1 ZINC000655982608    0.1000
46     H46    -1.9857   -0.8484    2.1877 H        1 ZINC000655982608    0.1000
47     H47    -1.9341    0.7652    1.4035 H        1 ZINC000655982608    0.0700
48     H48    -3.9686   -1.4659    1.0629 H        1 ZINC000655982608    0.0900
49     H49    -4.2158    0.3101    0.9955 H        1 ZINC000655982608    0.0800
50     H50    -5.2860   -0.2785   -1.6455 H        1 ZINC000655982608    0.1200
51     H51    -4.4631   -0.3796   -3.9656 H        1 ZINC000655982608    0.1200
52     H52    -2.0624   -0.6991   -4.4049 H        1 ZINC000655982608    0.1300
53     H53    -0.4835   -0.9248   -2.5375 H        1 ZINC000655982608    0.1200
@<TRIPOS>BOND
1     1     2     1
2     1     32    1
3     1     33    1
4     1     34    1
5     2     3     1
6     2     4     1
7     2     23    1
8     4     5     1
9     4     35    1
10    4     36    1
11    5     22    1
12    5     6     2
13    6     7     1
14    7     8     1
15    7     21    2
16    8     9     1
17    8     20    1
18    8     10    1
19    10    11    1
20    10    37    1
21    10    38    1
22    11    12    2
23    11    13    am
24    13    14    1
25    13    20    1
26    14    19    ar
27    14    15    ar
28    15    16    ar
29    15    39    1
30    16    17    ar
31    16    40    1
32    17    18    ar
33    17    41    1
34    18    19    ar
35    18    42    1
36    19    43    1
37    20    44    1
38    20    45    1
39    21    22    1
40    23    31    1
41    23    24    1
42    24    25    1
43    24    46    1
44    24    47    1
45    25    26    1
46    25    48    1
47    25    49    1
48    26    31    ar
49    26    27    ar
50    27    28    ar
51    27    50    1
52    28    29    ar
53    28    51    1
54    29    30    ar
55    29    52    1
56    30    31    ar
57    30    53    1
@<TRIPOS>SUBSTRUCTURE
1   ZINC000655982608 1     RESIDUE    1   A     ZIN   1
@<TRIPOS>MOLECULE
ZINC000464867530
59	62	1	0	0
SMALL
USER_CHARGES
@<TRIPOS>ATOM
1      C1     -0.7390   -3.8785   -4.3577 C.3      1 ZINC000464867530   -0.1500
2      C2      0.3447   -3.1068   -3.6020 C.3      1 ZINC000464867530   -0.1400
3      C3     -0.1859   -2.6978   -2.2264 C.3      1 ZINC000464867530    0.0900
4      N4      0.8518   -1.9589   -1.5028 N.am     1 ZINC000464867530   -0.6100
5      C5      0.9006   -0.4969   -1.5827 C.3      1 ZINC000464867530    0.0700
6      C6     -0.0142    0.1032   -0.5131 C.3      1 ZINC000464867530    0.4300
7      F7      0.4154   -0.3093    0.7528 F        1 ZINC000464867530   -0.1700
8      F8      0.0325    1.4993   -0.5894 F        1 ZINC000464867530   -0.1800
9      F9     -1.3269   -0.3318   -0.7248 F        1 ZINC000464867530   -0.1800
10     C10     1.7614   -2.6242   -0.7636 C.2      1 ZINC000464867530    0.5300
11     O11     2.5629   -2.0101   -0.0916 O.2      1 ZINC000464867530   -0.5100
12     C12     1.7826   -4.1310   -0.7719 C.3      1 ZINC000464867530   -0.1200
13     H13     1.6344   -4.4913   -1.7900 H        1 ZINC000464867530    0.1000
14     C14     0.6632   -4.6626    0.1260 C.3      1 ZINC000464867530   -0.1200
15     C15     0.6631   -6.1926    0.0924 C.3      1 ZINC000464867530   -0.1300
16     C16     2.0009   -6.7113    0.6291 C.3      1 ZINC000464867530    0.1000
17     N17     3.0903   -6.0909   -0.1371 N.am     1 ZINC000464867530   -0.6100
18     C18     4.0324   -6.8510   -0.7298 C.2      1 ZINC000464867530    0.5500
19     O19     4.9266   -6.3269   -1.3595 O.2      1 ZINC000464867530   -0.5300
20     C20     3.9747   -8.3521   -0.6099 C.3      1 ZINC000464867530   -0.1700
21     H21     3.8694   -8.7393    0.4036 H        1 ZINC000464867530    0.1300
22     C22     4.8081   -9.1732   -1.5978 C.3      1 ZINC000464867530   -0.1300
23     C23     3.2897   -9.1223   -1.7326 C.3      1 ZINC000464867530   -0.0600
24     C24     2.6182   -8.3889   -2.9056 C.3      1 ZINC000464867530   -0.0900
25     C25     1.1433   -8.8254   -2.7627 C.3      1 ZINC000464867530   -0.0800
26     C26     1.1908  -10.1598   -2.0486 C.ar     1 ZINC000464867530   -0.0900
27     C27     0.2282  -11.1472   -1.9284 C.ar     1 ZINC000464867530   -0.1100
28     C28     0.4981  -12.2997   -1.2162 C.ar     1 ZINC000464867530   -0.1100
29     C29     1.7339  -12.4685   -0.6208 C.ar     1 ZINC000464867530   -0.1200
30     C30     2.6964  -11.4848   -0.7394 C.ar     1 ZINC000464867530   -0.1000
31     C31     2.4289  -10.3288   -1.4529 C.ar     1 ZINC000464867530   -0.0700
32     C32     3.1334   -4.6263   -0.2458 C.3      1 ZINC000464867530    0.1300
33     H33    -1.0106   -4.7704   -3.7931 H        1 ZINC000464867530    0.0600
34     H34    -1.6173   -3.2449   -4.4808 H        1 ZINC000464867530    0.0600
35     H35    -0.3610   -4.1699   -5.3377 H        1 ZINC000464867530    0.0600
36     H36     1.2230   -3.7404   -3.4789 H        1 ZINC000464867530    0.0700
37     H37     0.6163   -2.2149   -4.1666 H        1 ZINC000464867530    0.0700
38     H38    -1.0642   -2.0642   -2.3495 H        1 ZINC000464867530    0.0900
39     H39    -0.4575   -3.5897   -1.6618 H        1 ZINC000464867530    0.0900
40     H40     1.9234   -0.1580   -1.4178 H        1 ZINC000464867530    0.1300
41     H41     0.5659   -0.1755   -2.5690 H        1 ZINC000464867530    0.1200
42     H42     0.8252   -4.3219    1.1487 H        1 ZINC000464867530    0.0800
43     H43    -0.2970   -4.2914   -0.2323 H        1 ZINC000464867530    0.0800
44     H44    -0.1491   -6.5701    0.7137 H        1 ZINC000464867530    0.0900
45     H45     0.5258   -6.5340   -0.9336 H        1 ZINC000464867530    0.0700
46     H46     2.0989   -6.4480    1.6823 H        1 ZINC000464867530    0.0700
47     H47     2.0450   -7.7944    0.5155 H        1 ZINC000464867530    0.0900
48     H48     5.3980   -8.6275   -2.3342 H        1 ZINC000464867530    0.1100
49     H49     5.2503  -10.1008   -1.2343 H        1 ZINC000464867530    0.1100
50     H50     2.7157   -7.3089   -2.7949 H        1 ZINC000464867530    0.0700
51     H51     3.0307   -8.7212   -3.8583 H        1 ZINC000464867530    0.0800
52     H52     0.5897   -8.0983   -2.1687 H        1 ZINC000464867530    0.0800
53     H53     0.6857   -8.9388   -3.7455 H        1 ZINC000464867530    0.0800
54     H54    -0.7379  -11.0159   -2.3930 H        1 ZINC000464867530    0.1200
55     H55    -0.2557  -13.0677   -1.1245 H        1 ZINC000464867530    0.1300
56     H56     1.9468  -13.3685   -0.0631 H        1 ZINC000464867530    0.1300
57     H57     3.6615  -11.6179   -0.2732 H        1 ZINC000464867530    0.1200
58     H58     3.9247   -4.3342   -0.9362 H        1 ZINC000464867530    0.1000
59     H59     3.3237   -4.1924    0.7359 H        1 ZINC000464867530    0.0800
@<TRIPOS>BOND
1     1     2     1
2     1     33    1
3     1     34    1
4     1     35    1
5     2     3     1
6     2     36    1
7     2     37    1
8     3     4     1
9     3     38    1
10    3     39    1
11    4     5     1
12    4     10    am
13    5     6     1
14    5     40    1
15    5     41    1
16    6     7     1
17    6     8     1
18    6     9     1
19    10    11    2
20    10    12    1
21    12    13    1
22    12    32    1
23    12    14    1
24    14    15    1
25    14    42    1
26    14    43    1
27    15    16    1
28    15    44    1
29    15    45    1
30    16    17    1
31    16    46    1
32    16    47    1
33    17    18    am
34    17    32    1
35    18    19    2
36    18    20    1
37    20    21    1
38    20    23    1
39    20    22    1
40    22    23    1
41    22    48    1
42    22    49    1
43    23    31    1
44    23    24    1
45    24    25    1
46    24    50    1
47    24    51    1
48    25    26    1
49    25    52    1
50    25    53    1
51    26    31    ar
52    26    27    ar
53    27    28    ar
54    27    54    1
55    28    29    ar
56    28    55    1
57    29    30    ar
58    29    56    1
59    30    31    ar
60    30    57    1
61    32    58    1
62    32    59    1
@<TRIPOS>SUBSTRUCTURE
1   ZINC000464867530 1     RESIDUE    1   A     ZIN   1
@<TRIPOS>MOLECULE
ZINC000011620562
48	50	1	0	0
SMALL
USER_CHARGES
@<TRIPOS>ATOM
1      C1      6.9705    1.4263    0.4033 C.3      1 ZINC000011620562    0.0400
2      O2      6.7388   -0.0020    0.2827 O.3      1 ZINC000011620562   -0.3500
3      C3      6.2368   -0.6308    1.3572 C.2      1 ZINC000011620562    0.4600
4      O4      5.9988   -0.0083    2.3650 O.2      1 ZINC000011620562   -0.5000
5      C5      5.9700   -2.1131    1.3064 C.3      1 ZINC000011620562    0.1300
6      N6      5.4282   -2.5561    2.5934 N.am     1 ZINC000011620562   -0.7200
7      C7      5.1124   -3.8529    2.7812 C.2      1 ZINC000011620562    0.5400
8      O8      5.2768   -4.6530    1.8847 O.2      1 ZINC000011620562   -0.5200
9      C9      4.5551   -4.3086    4.1051 C.3      1 ZINC000011620562   -0.1600
10     S10     4.2347   -6.0889    4.0441 S.3      1 ZINC000011620562    0.1400
11     C11     3.6085   -6.3430    5.6714 C.2      1 ZINC000011620562    0.2100
12     N12     3.4491   -5.4247    6.6004 N.2      1 ZINC000011620562   -0.3400
13     N13     2.9700   -5.9469    7.6713 N.2      1 ZINC000011620562   -0.0300
14     N14     2.7903   -7.2133    7.5117 N.2      1 ZINC000011620562   -0.0800
15     N15     3.1945   -7.5202    6.2006 N.pl3    1 ZINC000011620562   -0.2600
16     C16     3.1793   -8.7812    5.5741 C.2      1 ZINC000011620562   -0.1300
17     C17     3.8373   -9.8856    5.9938 C.2      1 ZINC000011620562    0.2500
18     C18     4.7152   -9.9783    7.2151 C.3      1 ZINC000011620562   -0.1100
19     N19     3.5698  -10.9049    5.1201 N.pl3    1 ZINC000011620562   -0.3700
20     C20     4.0872  -12.2724    5.2120 C.3      1 ZINC000011620562    0.0900
21     N21     2.7157  -10.4155    4.1233 N.am     1 ZINC000011620562   -0.3600
22     C22     2.2081  -11.1437    3.0427 C.ar     1 ZINC000011620562    0.1400
23     C23     1.6446  -12.3961    3.2507 C.ar     1 ZINC000011620562   -0.1300
24     C24     1.1437  -13.1124    2.1815 C.ar     1 ZINC000011620562   -0.1000
25     C25     1.2027  -12.5841    0.9049 C.ar     1 ZINC000011620562   -0.1100
26     C26     1.7634  -11.3377    0.6943 C.ar     1 ZINC000011620562   -0.1000
27     C27     2.2609  -10.6137    1.7600 C.ar     1 ZINC000011620562   -0.1000
28     C28     2.4660   -9.1184    4.3947 C.2      1 ZINC000011620562    0.5500
29     O29     1.7618   -8.3698    3.7417 O.2      1 ZINC000011620562   -0.5000
30     H30     7.6799    1.6125    1.2097 H        1 ZINC000011620562    0.0700
31     H31     7.3763    1.8089   -0.5332 H        1 ZINC000011620562    0.1100
32     H32     6.0292    1.9297    0.6240 H        1 ZINC000011620562    0.0700
33     H33     5.2497   -2.3258    0.5164 H        1 ZINC000011620562    0.1200
34     H34     6.9004   -2.6430    1.1021 H        1 ZINC000011620562    0.1200
35     H35     5.2968   -1.9162    3.3104 H        1 ZINC000011620562    0.4200
36     H36     5.2754   -4.0959    4.8951 H        1 ZINC000011620562    0.1400
37     H37     3.6247   -3.7787    4.3094 H        1 ZINC000011620562    0.1400
38     H38     4.7428   -9.0112    7.7171 H        1 ZINC000011620562    0.1000
39     H39     4.3135  -10.7294    7.8952 H        1 ZINC000011620562    0.1000
40     H40     5.7245  -10.2615    6.9163 H        1 ZINC000011620562    0.1000
41     H41     4.7540  -12.3516    6.0706 H        1 ZINC000011620562    0.1100
42     H42     3.2565  -12.9679    5.3317 H        1 ZINC000011620562    0.0900
43     H43     4.6361  -12.5151    4.3021 H        1 ZINC000011620562    0.0900
44     H44     1.5986  -12.8094    4.2475 H        1 ZINC000011620562    0.1300
45     H45     0.7058  -14.0865    2.3425 H        1 ZINC000011620562    0.1300
46     H46     0.8102  -13.1464    0.0705 H        1 ZINC000011620562    0.1300
47     H47     1.8085  -10.9283   -0.3040 H        1 ZINC000011620562    0.1400
48     H48     2.6984   -9.6402    1.5949 H        1 ZINC000011620562    0.1400
@<TRIPOS>BOND
1     1     2     1
2     1     30    1
3     1     31    1
4     1     32    1
5     2     3     1
6     3     4     2
7     3     5     1
8     5     6     1
9     5     33    1
10    5     34    1
11    6     7     am
12    6     35    1
13    7     8     2
14    7     9     1
15    9     10    1
16    9     36    1
17    9     37    1
18    10    11    1
19    11    15    1
20    11    12    2
21    12    13    1
22    13    14    2
23    14    15    1
24    15    16    1
25    16    28    1
26    16    17    2
27    17    18    1
28    17    19    1
29    18    38    1
30    18    39    1
31    18    40    1
32    19    20    1
33    19    21    1
34    20    41    1
35    20    42    1
36    20    43    1
37    21    22    1
38    21    28    am
39    22    27    ar
40    22    23    ar
41    23    24    ar
42    23    44    1
43    24    25    ar
44    24    45    1
45    25    26    ar
46    25    46    1
47    26    27    ar
48    26    47    1
49    27    48    1
50    28    29    2
@<TRIPOS>SUBSTRUCTURE
1   ZINC000011620562 1     RESIDUE    1   A     ZIN   1
@<TRIPOS>MOLECULE
ZINC000461336108
53	56	1	0	0
SMALL
USER_CHARGES
@<TRIPOS>ATOM
1      C1     -0.7383    1.4387    0.1732 C.3      1 ZINC000461336108   -0.1300
2      C2     -0.3417   -0.0389    0.1935 C.3      1 ZINC000461336108    0.0700
3      H3     -1.2403   -0.6551    0.1628 H        1 ZINC000461336108    0.0800
4      C4      0.5123   -0.3425   -1.0049 C.2      1 ZINC000461336108    0.5300
5      O5      0.1934    0.1226   -2.0786 O.2      1 ZINC000461336108   -0.5300
6      N6      1.6096   -1.1037   -0.9371 N.am     1 ZINC000461336108   -0.6100
7      C7      2.3536   -1.3705   -2.1705 C.3      1 ZINC000461336108    0.0700
8      C8      2.0994   -1.6805    0.3116 C.3      1 ZINC000461336108    0.1200
9      C9      0.9879   -1.6762    1.3627 C.3      1 ZINC000461336108    0.0400
10     N10     0.4051   -0.3265    1.4254 N.3      1 ZINC000461336108   -0.4300
11     C11    -0.4076   -0.1877    2.5392 C.2      1 ZINC000461336108    0.3300
12     N12    -0.3065    0.7329    3.4688 N.2      1 ZINC000461336108   -0.2500
13     N13    -1.2237    0.5634    4.3529 N.2      1 ZINC000461336108   -0.2800
14     C14    -1.9585   -0.4669    4.0426 C.2      1 ZINC000461336108    0.2000
15     C15    -3.1350   -0.9928    4.8238 C.3      1 ZINC000461336108   -0.0300
16     C16    -4.3850   -0.1853    4.4688 C.3      1 ZINC000461336108   -0.0900
17     C17    -4.8177   -0.4698    3.0090 C.3      1 ZINC000461336108   -0.1200
18     C18    -6.3236   -0.1074    3.0221 C.3      1 ZINC000461336108   -0.1200
19     C19    -6.8194   -0.6003    4.3972 C.3      1 ZINC000461336108   -0.1300
20     C20    -5.5869   -0.6498    5.3170 C.3      1 ZINC000461336108   -0.1200
21     N21    -1.4679   -0.9790    2.8734 N.pl3    1 ZINC000461336108   -0.4900
22     C22    -1.9709   -2.1412    2.1369 C.3      1 ZINC000461336108    0.1700
23     C23    -1.3828   -3.3995    2.7217 C.2      1 ZINC000461336108   -0.2400
24     C24    -1.8551   -4.0451    3.7891 C.2      1 ZINC000461336108   -0.0900
25     C25    -1.1488   -5.1818    4.1430 C.2      1 ZINC000461336108   -0.1400
26     C26    -0.1030   -5.4592    3.3629 C.2      1 ZINC000461336108   -0.2000
27     S27     0.0267   -4.2455    2.0965 S.3      1 ZINC000461336108    0.1200
28     H28     0.1593    2.0563    0.2038 H        1 ZINC000461336108    0.0800
29     H29    -1.2958    1.6528   -0.7386 H        1 ZINC000461336108    0.0800
30     H30    -1.3611    1.6596    1.0401 H        1 ZINC000461336108    0.0700
31     H31     1.8621   -0.8725   -3.0063 H        1 ZINC000461336108    0.0900
32     H32     3.3711   -0.9927   -2.0700 H        1 ZINC000461336108    0.0700
33     H33     2.3813   -2.4448   -2.3530 H        1 ZINC000461336108    0.0600
34     H34     2.4247   -2.7055    0.1334 H        1 ZINC000461336108    0.0900
35     H35     2.9429   -1.0933    0.6748 H        1 ZINC000461336108    0.0900
36     H36     0.2180   -2.3956    1.0836 H        1 ZINC000461336108    0.0500
37     H37     1.4033   -1.9409    2.3351 H        1 ZINC000461336108    0.1100
38     H38    -3.2970   -2.0415    4.5748 H        1 ZINC000461336108    0.0800
39     H39    -2.9333   -0.8998    5.8910 H        1 ZINC000461336108    0.1000
40     H40    -4.2042    0.8797    4.6145 H        1 ZINC000461336108    0.0900
41     H41    -4.2729    0.1682    2.3133 H        1 ZINC000461336108    0.0600
42     H42    -4.6758   -1.5220    2.7622 H        1 ZINC000461336108    0.0600
43     H43    -6.4573    0.9706    2.9323 H        1 ZINC000461336108    0.0700
44     H44    -6.8477   -0.6259    2.2192 H        1 ZINC000461336108    0.0700
45     H45    -7.5574    0.0940    4.7988 H        1 ZINC000461336108    0.0700
46     H46    -7.2548   -1.5951    4.3025 H        1 ZINC000461336108    0.0600
47     H47    -5.4241   -1.6686    5.6687 H        1 ZINC000461336108    0.0700
48     H48    -5.7267    0.0205    6.1651 H        1 ZINC000461336108    0.0700
49     H49    -3.0576   -2.1779    2.2144 H        1 ZINC000461336108    0.1200
50     H50    -1.6839   -2.0591    1.0886 H        1 ZINC000461336108    0.1000
51     H51    -2.7226   -3.7064    4.3360 H        1 ZINC000461336108    0.1400
52     H52    -1.4235   -5.7971    4.9869 H        1 ZINC000461336108    0.1500
53     H53     0.5605   -6.3022    3.4877 H        1 ZINC000461336108    0.1700
@<TRIPOS>BOND
1     1     2     1
2     1     28    1
3     1     29    1
4     1     30    1
5     2     3     1
6     2     10    1
7     2     4     1
8     4     5     2
9     4     6     am
10    6     7     1
11    6     8     1
12    7     31    1
13    7     32    1
14    7     33    1
15    8     9     1
16    8     34    1
17    8     35    1
18    9     10    1
19    9     36    1
20    9     37    1
21    10    11    1
22    11    21    1
23    11    12    2
24    12    13    1
25    13    14    2
26    14    15    1
27    14    21    1
28    15    16    1
29    15    38    1
30    15    39    1
31    16    20    1
32    16    17    1
33    16    40    1
34    17    18    1
35    17    41    1
36    17    42    1
37    18    19    1
38    18    43    1
39    18    44    1
40    19    20    1
41    19    45    1
42    19    46    1
43    20    47    1
44    20    48    1
45    21    22    1
46    22    23    1
47    22    49    1
48    22    50    1
49    23    27    1
50    23    24    2
51    24    25    1
52    24    51    1
53    25    26    2
54    25    52    1
55    26    27    1
56    26    53    1
@<TRIPOS>SUBSTRUCTURE
1   ZINC000461336108 1     RESIDUE    1   A     ZIN   1
@<TRIPOS>MOLECULE
ZINC000130059363
56	60	1	0	0
SMALL
USER_CHARGES
@<TRIPOS>ATOM
1      C1      0.9537    1.0078    0.4157 C.3      1 ZINC000130059363   -0.1200
2      C2      0.0545   -0.1937    0.2784 C.ar     1 ZINC000130059363    0.1900
3      N3     -0.1178   -0.7458   -0.9025 N.ar     1 ZINC000130059363   -0.4800
4      C4     -0.9001   -1.8055   -1.0715 C.ar     1 ZINC000130059363    0.2000
5      C5     -1.0590   -2.3891   -2.4247 C.ar     1 ZINC000130059363   -0.0600
6      C6     -1.8820   -3.4982   -2.6163 C.ar     1 ZINC000130059363   -0.1000
7      C7     -2.0264   -4.0369   -3.8785 C.ar     1 ZINC000130059363   -0.1200
8      C8     -1.3562   -3.4790   -4.9525 C.ar     1 ZINC000130059363   -0.1000
9      C9     -0.5379   -2.3789   -4.7684 C.ar     1 ZINC000130059363   -0.1300
10     C10    -0.3906   -1.8277   -3.5119 C.ar     1 ZINC000130059363   -0.0700
11     C11    -1.5738   -2.3767    0.0079 C.ar     1 ZINC000130059363   -0.1800
12     C12    -1.4202   -1.8274    1.2654 C.ar     1 ZINC000130059363   -0.0400
13     C13    -0.5827   -0.7126    1.4077 C.ar     1 ZINC000130059363   -0.1900
14     C14    -0.3850   -0.0888    2.7319 C.2      1 ZINC000130059363    0.5700
15     O15    -0.5244    1.1115    2.8653 O.2      1 ZINC000130059363   -0.5200
16     N16    -0.0501   -0.8503    3.7923 N.am     1 ZINC000130059363   -0.6000
17     C17     0.2339   -2.2832    3.6288 C.3      1 ZINC000130059363    0.1000
18     C18     1.6198   -2.5717    4.2135 C.3      1 ZINC000130059363   -0.1500
19     C19     1.6865   -2.0780    5.6543 C.3      1 ZINC000130059363    0.1500
20     H20     2.6929   -2.2627    6.0301 H        1 ZINC000130059363    0.0700
21     C21     1.4196   -0.5759    5.7284 C.3      1 ZINC000130059363   -0.1100
22     H22     2.1978   -0.0309    5.1942 H        1 ZINC000130059363    0.1000
23     C23     1.4114   -0.1675    7.2101 C.3      1 ZINC000130059363   -0.1200
24     C24     0.1840   -0.7978    7.8730 C.3      1 ZINC000130059363   -0.1400
25     C25     0.0958   -2.2549    7.5216 C.2      1 ZINC000130059363    0.5200
26     O26    -0.6165   -2.9664    8.1978 O.2      1 ZINC000130059363   -0.5400
27     N27     0.7480   -2.7980    6.5005 N.am     1 ZINC000130059363   -0.5700
28     C28     0.5351   -4.2202    6.2207 C.3      1 ZINC000130059363    0.0700
29     C29     1.7746   -5.0919    6.0094 C.3      1 ZINC000130059363   -0.1800
30     C30     0.9578   -5.2228    7.2964 C.3      1 ZINC000130059363   -0.1600
31     C31     0.0452   -0.2660    5.1357 C.3      1 ZINC000130059363    0.1100
32     H32     1.9497    0.6835    0.7172 H        1 ZINC000130059363    0.0800
33     H33     1.0147    1.5271   -0.5407 H        1 ZINC000130059363    0.0800
34     H34     0.5471    1.6816    1.1698 H        1 ZINC000130059363    0.1000
35     H35    -2.4052   -3.9350   -1.7785 H        1 ZINC000130059363    0.1300
36     H36    -2.6636   -4.8959   -4.0282 H        1 ZINC000130059363    0.1300
37     H37    -1.4719   -3.9042   -5.9385 H        1 ZINC000130059363    0.1300
38     H38    -0.0169   -1.9478   -5.6105 H        1 ZINC000130059363    0.1300
39     H39     0.2485   -0.9688   -3.3693 H        1 ZINC000130059363    0.1400
40     H40    -2.2084   -3.2383   -0.1382 H        1 ZINC000130059363    0.1400
41     H41    -1.9300   -2.2488    2.1192 H        1 ZINC000130059363    0.1400
42     H42    -0.5172   -2.8690    4.1588 H        1 ZINC000130059363    0.0700
43     H43     0.2213   -2.5414    2.5699 H        1 ZINC000130059363    0.0900
44     H44     1.8068   -3.6453    4.1894 H        1 ZINC000130059363    0.0900
45     H45     2.3771   -2.0599    3.6197 H        1 ZINC000130059363    0.0800
46     H46     2.3178   -0.5285    7.6961 H        1 ZINC000130059363    0.0800
47     H47     1.3568    0.9180    7.2921 H        1 ZINC000130059363    0.0900
48     H48     0.2634   -0.6914    8.9549 H        1 ZINC000130059363    0.1000
49     H49    -0.7150   -0.2878    7.5272 H        1 ZINC000130059363    0.1000
50     H50    -0.3525   -4.4561    5.6338 H        1 ZINC000130059363    0.1100
51     H51     1.7026   -5.9015    5.2831 H        1 ZINC000130059363    0.1100
52     H52     2.7485   -4.6072    6.0784 H        1 ZINC000130059363    0.1000
53     H53     1.3942   -4.8242    8.2122 H        1 ZINC000130059363    0.1000
54     H54     0.3484   -6.1185    7.4169 H        1 ZINC000130059363    0.1000
55     H55    -0.0903    0.8138    5.0751 H        1 ZINC000130059363    0.1000
56     H56    -0.7302   -0.6964    5.7695 H        1 ZINC000130059363    0.0700
@<TRIPOS>BOND
1     1     2     1
2     1     32    1
3     1     33    1
4     1     34    1
5     2     13    ar
6     2     3     ar
7     3     4     ar
8     4     5     1
9     4     11    ar
10    5     10    ar
11    5     6     ar
12    6     7     ar
13    6     35    1
14    7     8     ar
15    7     36    1
16    8     9     ar
17    8     37    1
18    9     10    ar
19    9     38    1
20    10    39    1
21    11    12    ar
22    11    40    1
23    12    13    ar
24    12    41    1
25    13    14    1
26    14    15    2
27    14    16    am
28    16    31    1
29    16    17    1
30    17    18    1
31    17    42    1
32    17    43    1
33    18    19    1
34    18    44    1
35    18    45    1
36    19    20    1
37    19    27    1
38    19    21    1
39    21    22    1
40    21    23    1
41    21    31    1
42    23    24    1
43    23    46    1
44    23    47    1
45    24    25    1
46    24    48    1
47    24    49    1
48    25    26    2
49    25    27    am
50    27    28    1
51    28    30    1
52    28    29    1
53    28    50    1
54    29    30    1
55    29    51    1
56    29    52    1
57    30    53    1
58    30    54    1
59    31    55    1
60    31    56    1
@<TRIPOS>SUBSTRUCTURE
1   ZINC000130059363 1     RESIDUE    1   A     ZIN   1
@<TRIPOS>MOLECULE
ZINC001077846158
46	48	1	0	0
SMALL
USER_CHARGES
@<TRIPOS>ATOM
1      C1     -0.0184    1.5028    0.0103 C.3      1 ZINC001077846158   -0.0700
2      C2      0.0021   -0.0041    0.0020 C.2      1 ZINC001077846158    0.0100
3      C3      0.0079   -0.7908   -1.0868 C.2      1 ZINC001077846158   -0.0500
4      C4     -0.0044   -0.3326   -2.5224 C.3      1 ZINC001077846158    0.1300
5      N5      1.3765   -0.1653   -2.9948 N.3      1 ZINC001077846158   -0.5100
6      C6      2.0332   -1.4822   -3.1966 C.3      1 ZINC001077846158    0.0000
7      C7      3.2061   -1.1505   -4.1532 C.3      1 ZINC001077846158    0.1000
8      H8      4.0499   -0.7378   -3.6003 H        1 ZINC001077846158    0.0800
9      O9      3.6035   -2.3104   -4.8871 O.3      1 ZINC001077846158   -0.5600
10     C10     2.5950   -0.0863   -5.0934 C.3      1 ZINC001077846158    0.1400
11     H11     2.2459   -0.5515   -6.0152 H        1 ZINC001077846158    0.1100
12     N12     3.5814    0.9549   -5.3921 N.am     1 ZINC001077846158   -0.7000
13     C13     3.4792    1.6742   -6.5273 C.2      1 ZINC001077846158    0.6000
14     O14     2.5679    1.4591   -7.3036 O.2      1 ZINC001077846158   -0.5300
15     C15     4.4707    2.7208   -6.8276 C.2      1 ZINC001077846158    0.0100
16     C16     4.4259    3.4833   -7.9432 C.2      1 ZINC001077846158   -0.2300
17     S17     5.7431    4.5726   -7.9203 S.3      1 ZINC001077846158    0.2300
18     C18     6.2774    3.9477   -6.4235 C.2      1 ZINC001077846158    0.0300
19     C19     7.4926    4.4326   -5.6756 C.3      1 ZINC001077846158   -0.0200
20     C20     8.7369    4.2398   -6.5447 C.3      1 ZINC001077846158   -0.1500
21     C21     7.3279    5.9168   -5.3426 C.3      1 ZINC001077846158   -0.1500
22     N22     5.4951    3.0093   -6.0205 N.2      1 ZINC001077846158   -0.4500
23     C23     1.4084    0.5072   -4.3117 C.3      1 ZINC001077846158    0.0300
24     O24     0.0271   -2.0667   -0.6539 O.3      1 ZINC001077846158   -0.2100
25     C25     0.0329   -2.0437    0.6855 C.2      1 ZINC001077846158    0.1800
26     N26     0.0237   -0.8034    1.0832 N.2      1 ZINC001077846158   -0.4900
27     H27     1.0042    1.8801    0.0026 H        1 ZINC001077846158    0.0800
28     H28    -0.5455    1.8639   -0.8728 H        1 ZINC001077846158    0.0700
29     H29    -0.5286    1.8543    0.9071 H        1 ZINC001077846158    0.0700
30     H30    -0.5110   -1.0767   -3.1370 H        1 ZINC001077846158    0.0600
31     H31    -0.5312    0.6188   -2.5956 H        1 ZINC001077846158    0.1100
32     H32     2.4072   -1.8745   -2.2510 H        1 ZINC001077846158    0.0900
33     H33     1.3451   -2.1879   -3.6619 H        1 ZINC001077846158    0.0600
34     H34     3.9227   -3.0360   -4.3333 H        1 ZINC001077846158    0.3900
35     H35     4.3081    1.1265   -4.7730 H        1 ZINC001077846158    0.4100
36     H36     3.6801    3.4153   -8.7214 H        1 ZINC001077846158    0.1900
37     H37     7.6023    3.8631   -4.7526 H        1 ZINC001077846158    0.1000
38     H38     8.8542    3.1824   -6.7819 H        1 ZINC001077846158    0.0600
39     H39     8.6272    4.8092   -7.4677 H        1 ZINC001077846158    0.0600
40     H40     9.6158    4.5905   -6.0037 H        1 ZINC001077846158    0.0700
41     H41     6.4415    6.0541   -4.7235 H        1 ZINC001077846158    0.0600
42     H42     8.2069    6.2675   -4.8017 H        1 ZINC001077846158    0.0700
43     H43     7.2182    6.4862   -6.2656 H        1 ZINC001077846158    0.0600
44     H44     0.4785    0.3179   -4.8479 H        1 ZINC001077846158    0.0600
45     H45     1.5511    1.5795   -4.1776 H        1 ZINC001077846158    0.0900
46     H46     0.0472   -2.9106    1.3295 H        1 ZINC001077846158    0.2500
@<TRIPOS>BOND
1     1     2     1
2     1     27    1
3     1     28    1
4     1     29    1
5     2     26    1
6     2     3     2
7     3     4     1
8     3     24    1
9     4     5     1
10    4     30    1
11    4     31    1
12    5     23    1
13    5     6     1
14    6     7     1
15    6     32    1
16    6     33    1
17    7     8     1
18    7     9     1
19    7     10    1
20    9     34    1
21    10    11    1
22    10    12    1
23    10    23    1
24    12    13    am
25    12    35    1
26    13    14    2
27    13    15    1
28    15    22    1
29    15    16    2
30    16    17    1
31    16    36    1
32    17    18    1
33    18    19    1
34    18    22    2
35    19    20    1
36    19    21    1
37    19    37    1
38    20    38    1
39    20    39    1
40    20    40    1
41    21    41    1
42    21    42    1
43    21    43    1
44    23    44    1
45    23    45    1
46    24    25    1
47    25    26    2
48    25    46    1
@<TRIPOS>SUBSTRUCTURE
1   ZINC001077846158 1     RESIDUE    1   A     ZIN   1
@<TRIPOS>MOLECULE
ZINC001401207732
46	47	1	0	0
SMALL
USER_CHARGES
@<TRIPOS>ATOM
1      C1     -5.2813    4.3056    4.0958 C.3      1 ZINC001401207732   -0.0900
2      C2     -5.5042    2.8190    4.2035 C.2      1 ZINC001401207732    0.1500
3      C3     -4.5032    1.9125    4.0744 C.2      1 ZINC001401207732   -0.3000
4      C4     -3.0909    2.2142    3.8176 C.2      1 ZINC001401207732    0.6100
5      O5     -2.7040    3.3679    3.8258 O.2      1 ZINC001401207732   -0.5200
6      N6     -2.2218    1.2137    3.5726 N.am     1 ZINC001401207732   -0.5900
7      C7     -2.7080   -0.1613    3.4339 C.3      1 ZINC001401207732    0.0700
8      C8     -0.7910    1.5011    3.4450 C.3      1 ZINC001401207732    0.1400
9      H9     -0.6218    2.5697    3.5774 H        1 ZINC001401207732    0.1100
10     C10    -0.0178    0.7261    4.5139 C.3      1 ZINC001401207732   -0.1600
11     C11    -0.3072    1.0763    2.0570 C.3      1 ZINC001401207732    0.0500
12     N12    -1.1299    1.7300    1.0305 N.3      1 ZINC001401207732   -0.6800
13     C13    -0.6932    1.3446   -0.3182 C.3      1 ZINC001401207732    0.1500
14     C14    -1.5583    2.0332   -1.3422 C.2      1 ZINC001401207732    0.1800
15     N15    -1.3386    3.2045   -1.8893 N.2      1 ZINC001401207732   -0.4800
16     C16    -2.3644    3.4069   -2.7353 C.2      1 ZINC001401207732    0.1800
17     C17    -2.5747    4.6168   -3.6088 C.3      1 ZINC001401207732   -0.0100
18     C18    -2.6069    4.1867   -5.0767 C.3      1 ZINC001401207732   -0.1500
19     C19    -3.9019    5.2848   -3.2439 C.3      1 ZINC001401207732   -0.1500
20     N20    -3.1411    2.3677   -2.6609 N.2      1 ZINC001401207732   -0.3800
21     O21    -2.6928    1.5643   -1.8704 O.3      1 ZINC001401207732    0.0900
22     S22    -5.2051    0.3072    4.2629 S.3      1 ZINC001401207732    0.1800
23     C23    -6.7492    1.0003    4.5032 C.2      1 ZINC001401207732    0.0100
24     N24    -6.6806    2.2908    4.4304 N.2      1 ZINC001401207732   -0.4800
25     H25    -5.4009    4.6167    3.0580 H        1 ZINC001401207732    0.0800
26     H26    -6.0082    4.8279    4.7178 H        1 ZINC001401207732    0.0800
27     H27    -4.2736    4.5473    4.4338 H        1 ZINC001401207732    0.1000
28     H28    -2.8096   -0.6121    4.4212 H        1 ZINC001401207732    0.0600
29     H29    -3.6774   -0.1555    2.9356 H        1 ZINC001401207732    0.0800
30     H30    -1.9986   -0.7395    2.8419 H        1 ZINC001401207732    0.0900
31     H31     1.0468    0.9400    4.4189 H        1 ZINC001401207732    0.0700
32     H32    -0.3624    1.0288    5.5027 H        1 ZINC001401207732    0.0700
33     H33    -0.1869   -0.3425    4.3815 H        1 ZINC001401207732    0.0600
34     H34    -0.3940   -0.0057    1.9575 H        1 ZINC001401207732    0.0800
35     H35     0.7345    1.3705    1.9295 H        1 ZINC001401207732    0.0500
36     H36    -1.1175    2.7328    1.1418 H        1 ZINC001401207732    0.3600
37     H37    -0.7827    0.2645   -0.4342 H        1 ZINC001401207732    0.1100
38     H38     0.3459    1.6407   -0.4621 H        1 ZINC001401207732    0.0800
39     H39    -1.7583    5.3225   -3.4548 H        1 ZINC001401207732    0.1000
40     H40    -2.7590    5.0618   -5.7085 H        1 ZINC001401207732    0.0700
41     H41    -1.6614    3.7108   -5.3367 H        1 ZINC001401207732    0.0600
42     H42    -3.4233    3.4811   -5.2308 H        1 ZINC001401207732    0.0600
43     H43    -3.8790    5.5912   -2.1981 H        1 ZINC001401207732    0.0600
44     H44    -4.0540    6.1599   -3.8756 H        1 ZINC001401207732    0.0700
45     H45    -4.7183    4.5792   -3.3979 H        1 ZINC001401207732    0.0600
46     H46    -7.6547    0.4405    4.6851 H        1 ZINC001401207732    0.2000
@<TRIPOS>BOND
1     1     2     1
2     1     25    1
3     1     26    1
4     1     27    1
5     2     24    1
6     2     3     2
7     3     4     1
8     3     22    1
9     4     5     2
10    4     6     am
11    6     7     1
12    6     8     1
13    7     28    1
14    7     29    1
15    7     30    1
16    8     9     1
17    8     10    1
18    8     11    1
19    10    31    1
20    10    32    1
21    10    33    1
22    11    12    1
23    11    34    1
24    11    35    1
25    12    13    1
26    12    36    1
27    13    14    1
28    13    37    1
29    13    38    1
30    14    21    1
31    14    15    2
32    15    16    1
33    16    17    1
34    16    20    2
35    17    18    1
36    17    19    1
37    17    39    1
38    18    40    1
39    18    41    1
40    18    42    1
41    19    43    1
42    19    44    1
43    19    45    1
44    20    21    1
45    22    23    1
46    23    24    2
47    23    46    1
@<TRIPOS>SUBSTRUCTURE
1   ZINC001401207732 1     RESIDUE    1   A     ZIN   1
@<TRIPOS>MOLECULE
ZINC001023407238
48	50	1	0	0
SMALL
USER_CHARGES
@<TRIPOS>ATOM
1      C1      2.5500   -0.5675   -0.6497 C.3      1 ZINC001023407238   -0.0900
2      C2      1.1274   -0.9058   -0.2852 C.2      1 ZINC001023407238   -0.1100
3      C3      0.0273   -0.8195   -1.1117 C.2      1 ZINC001023407238   -0.0500
4      C4      0.0266   -0.3803   -2.5112 C.2      1 ZINC001023407238    0.6100
5      O5     -0.0799    0.8023   -2.7777 O.2      1 ZINC001023407238   -0.5100
6      N6      0.1438   -1.2865   -3.5019 N.am     1 ZINC001023407238   -0.6100
7      C7      0.1637   -2.7465   -3.3298 C.3      1 ZINC001023407238    0.0800
8      C8      0.2853   -3.3719   -4.7354 C.3      1 ZINC001023407238    0.0900
9      H9      1.3249   -3.6055   -4.9649 H        1 ZINC001023407238    0.0800
10     O10    -0.5289   -4.5415   -4.8405 O.3      1 ZINC001023407238   -0.5500
11     C11    -0.2422   -2.2460   -5.6636 C.3      1 ZINC001023407238    0.1400
12     H12    -1.3312   -2.2552   -5.7090 H        1 ZINC001023407238    0.1200
13     N13     0.3375   -2.3562   -7.0045 N.am     1 ZINC001023407238   -0.7200
14     C14    -0.3165   -1.8435   -8.0656 C.2      1 ZINC001023407238    0.5200
15     O15    -1.3849   -1.2909   -7.9103 O.2      1 ZINC001023407238   -0.5300
16     C16     0.2798   -1.9569   -9.4450 C.3      1 ZINC001023407238   -0.1300
17     C17    -0.6562   -1.2990  -10.4608 C.3      1 ZINC001023407238   -0.1100
18     H18    -1.6603   -1.7172  -10.3886 H        1 ZINC001023407238    0.1100
19     C19    -0.6836    0.2348  -10.2716 C.3      1 ZINC001023407238    0.0600
20     O20    -0.8231    0.7656  -11.6227 O.3      1 ZINC001023407238   -0.3500
21     C21    -0.2349   -0.0597  -12.5003 C.2      1 ZINC001023407238    0.4800
22     O22     0.1319    0.2520  -13.6086 O.2      1 ZINC001023407238   -0.4600
23     C23    -0.1013   -1.4447  -11.8953 C.3      1 ZINC001023407238   -0.1800
24     C24     0.2671   -0.9781   -4.9383 C.3      1 ZINC001023407238    0.1000
25     N25    -1.0703   -1.2211   -0.3844 N.pl3    1 ZINC001023407238   -0.4200
26     C26    -2.4476   -1.2825   -0.8798 C.3      1 ZINC001023407238    0.0700
27     C27    -0.6646   -1.5501    0.8662 C.2      1 ZINC001023407238    0.0100
28     C28     0.6754   -1.3722    0.9531 C.2      1 ZINC001023407238   -0.2000
29     H29     3.0441   -1.4543   -1.0467 H        1 ZINC001023407238    0.0600
30     H30     2.5545    0.2193   -1.4041 H        1 ZINC001023407238    0.0600
31     H31     3.0804   -0.2228    0.2380 H        1 ZINC001023407238    0.0700
32     H32     1.0193   -3.0362   -2.7199 H        1 ZINC001023407238    0.0800
33     H33    -0.7608   -3.0765   -2.8560 H        1 ZINC001023407238    0.0800
34     H34    -0.2858   -5.2466   -4.2250 H        1 ZINC001023407238    0.3900
35     H35     1.1920   -2.7981   -7.1287 H        1 ZINC001023407238    0.4100
36     H36     1.2475   -1.4557   -9.4648 H        1 ZINC001023407238    0.1000
37     H37     0.4102   -3.0088   -9.6991 H        1 ZINC001023407238    0.1100
38     H38    -1.5355    0.5274   -9.6578 H        1 ZINC001023407238    0.1200
39     H39     0.2473    0.5795   -9.8214 H        1 ZINC001023407238    0.0800
40     H40     0.9457   -1.7465  -11.8660 H        1 ZINC001023407238    0.1100
41     H41    -0.6890   -2.1654  -12.4639 H        1 ZINC001023407238    0.1200
42     H42    -0.3498   -0.1181   -5.1994 H        1 ZINC001023407238    0.0900
43     H43     1.3101   -0.7889   -5.1921 H        1 ZINC001023407238    0.0800
44     H44    -2.6634   -2.2923   -1.2290 H        1 ZINC001023407238    0.0800
45     H45    -3.1351   -1.0217   -0.0751 H        1 ZINC001023407238    0.0900
46     H46    -2.5691   -0.5794   -1.7037 H        1 ZINC001023407238    0.0800
47     H47    -1.3046   -1.9006    1.6623 H        1 ZINC001023407238    0.1700
48     H48     1.2854   -1.5518    1.8261 H        1 ZINC001023407238    0.1400
@<TRIPOS>BOND
1     1     2     1
2     1     29    1
3     1     30    1
4     1     31    1
5     2     28    1
6     2     3     2
7     3     4     1
8     3     25    1
9     4     5     2
10    4     6     am
11    6     24    1
12    6     7     1
13    7     8     1
14    7     32    1
15    7     33    1
16    8     9     1
17    8     10    1
18    8     11    1
19    10    34    1
20    11    12    1
21    11    13    1
22    11    24    1
23    13    14    am
24    13    35    1
25    14    15    2
26    14    16    1
27    16    17    1
28    16    36    1
29    16    37    1
30    17    18    1
31    17    23    1
32    17    19    1
33    19    20    1
34    19    38    1
35    19    39    1
36    20    21    1
37    21    22    2
38    21    23    1
39    23    40    1
40    23    41    1
41    24    42    1
42    24    43    1
43    25    26    1
44    25    27    1
45    26    44    1
46    26    45    1
47    26    46    1
48    27    28    2
49    27    47    1
50    28    48    1
@<TRIPOS>SUBSTRUCTURE
1   ZINC001023407238 1     RESIDUE    1   A     ZIN   1
@<TRIPOS>MOLECULE
ZINC001199210165
38	40	1	0	0
SMALL
USER_CHARGES
@<TRIPOS>ATOM
1      C1     -0.0052    1.5436    0.0204 C.3      1 ZINC001199210165   -0.1700
2      C2      0.0037    0.0137    0.0074 C.3      1 ZINC001199210165    0.0800
3      C3      0.7134   -0.4815   -1.2543 C.3      1 ZINC001199210165   -0.1500
4      O4      0.6936   -0.4685    1.1623 O.3      1 ZINC001199210165   -0.3000
5      C5     -0.0489   -0.6876    2.2766 C.ar     1 ZINC001199210165    0.3300
6      C6      0.5669   -1.1508    3.4315 C.ar     1 ZINC001199210165   -0.1300
7      C7     -0.2106   -1.3715    4.5701 C.ar     1 ZINC001199210165   -0.0600
8      C8      0.4018   -1.8647    5.8254 C.2      1 ZINC001199210165    0.5700
9      O9      1.5963   -2.0829    5.8739 O.2      1 ZINC001199210165   -0.4900
10     N10    -0.3658   -2.0716    6.9137 N.am     1 ZINC001199210165   -0.6600
11     C11     0.1935   -2.6275    8.0682 C.ar     1 ZINC001199210165    0.2000
12     C12     1.5057   -2.3112    8.4234 C.ar     1 ZINC001199210165   -0.1500
13     C13     2.0675   -2.8434    9.5458 C.ar     1 ZINC001199210165   -0.0200
14     C14     1.3252   -3.7146   10.3511 C.ar     1 ZINC001199210165   -0.1700
15     C15     1.6100   -4.4422   11.5846 C.2      1 ZINC001199210165    0.0900
16     Br16    3.2371   -4.4090   12.5476 Br       1 ZINC001199210165    0.0600
17     N17     0.5428   -5.1180   11.9036 N.2      1 ZINC001199210165   -0.2100
18     N18    -0.4652   -4.8985   10.9591 N.pl3    1 ZINC001199210165   -0.4900
19     C19     0.0002   -4.0382    9.9986 C.ar     1 ZINC001199210165    0.1500
20     C20    -0.5595   -3.4820    8.8525 C.ar     1 ZINC001199210165   -0.1700
21     C21    -1.5840   -1.1137    4.4935 C.ar     1 ZINC001199210165   -0.1900
22     C22    -2.1162   -0.6546    3.3058 C.ar     1 ZINC001199210165    0.1400
23     N23    -1.3497   -0.4525    2.2517 N.ar     1 ZINC001199210165   -0.5200
24     H24     1.0203    1.9130    0.0117 H        1 ZINC001199210165    0.0600
25     H25    -0.5314    1.9114   -0.8604 H        1 ZINC001199210165    0.0700
26     H26    -0.5107    1.8964    0.9193 H        1 ZINC001199210165    0.0600
27     H27    -1.0217   -0.3557    0.0162 H        1 ZINC001199210165    0.0900
28     H28     1.7389   -0.1121   -1.2631 H        1 ZINC001199210165    0.0700
29     H29     0.7197   -1.5715   -1.2636 H        1 ZINC001199210165    0.0600
30     H30     0.1872   -0.1137   -2.1352 H        1 ZINC001199210165    0.0800
31     H31     1.6305   -1.3378    3.4488 H        1 ZINC001199210165    0.1600
32     H32    -1.3063   -1.8347    6.8961 H        1 ZINC001199210165    0.4100
33     H33     2.0811   -1.6394    7.8037 H        1 ZINC001199210165    0.1500
34     H34     3.0837   -2.5934    9.8129 H        1 ZINC001199210165    0.1400
35     H35    -1.3516   -5.2918   10.9805 H        1 ZINC001199210165    0.4500
36     H36    -1.5760   -3.7190    8.5752 H        1 ZINC001199210165    0.1400
37     H37    -2.2191   -1.2723    5.3525 H        1 ZINC001199210165    0.1400
38     H38    -3.1753   -0.4540    3.2397 H        1 ZINC001199210165    0.1700
@<TRIPOS>BOND
1     1     2     1
2     1     24    1
3     1     25    1
4     1     26    1
5     2     3     1
6     2     4     1
7     2     27    1
8     3     28    1
9     3     29    1
10    3     30    1
11    4     5     1
12    5     23    ar
13    5     6     ar
14    6     7     ar
15    6     31    1
16    7     8     1
17    7     21    ar
18    8     9     2
19    8     10    am
20    10    11    1
21    10    32    1
22    11    20    ar
23    11    12    ar
24    12    13    ar
25    12    33    1
26    13    14    ar
27    13    34    1
28    14    19    ar
29    14    15    1
30    15    16    1
31    15    17    2
32    17    18    1
33    18    19    1
34    18    35    1
35    19    20    ar
36    20    36    1
37    21    22    ar
38    21    37    1
39    22    23    ar
40    22    38    1
@<TRIPOS>SUBSTRUCTURE
1   ZINC001199210165 1     RESIDUE    1   A     ZIN   1
@<TRIPOS>MOLECULE
ZINC000893400114
58	61	1	0	0
SMALL
USER_CHARGES
@<TRIPOS>ATOM
1      O1      0.0068   -0.0193   -0.0466 O.2      1 ZINC000893400114   -0.5600
2      C2     -0.0009    1.1906    0.0739 C.2      1 ZINC000893400114    0.7100
3      N3      1.1615    1.8719    0.1067 N.am     1 ZINC000893400114   -0.7300
4      C4      2.4352    1.1480    0.1057 C.3      1 ZINC000893400114    0.1400
5      H5      2.3415    0.2123    0.6569 H        1 ZINC000893400114    0.1200
6      C6      3.5558    2.0237    0.7127 C.3      1 ZINC000893400114   -0.1400
7      C7      4.1632    2.6768   -0.5487 C.3      1 ZINC000893400114    0.1000
8      N8      3.8656    1.7532   -1.6497 N.am     1 ZINC000893400114   -0.6200
9      C9      4.5402    1.7725   -2.9501 C.3      1 ZINC000893400114    0.1600
10     C10     5.2232    0.4232   -3.1931 C.3      1 ZINC000893400114   -0.1700
11     C11     5.8581    0.4250   -4.5862 C.3      1 ZINC000893400114    0.0700
12     O12     4.8523    0.6896   -5.5662 O.3      1 ZINC000893400114   -0.3800
13     C13     4.2119    1.9584   -5.4173 C.3      1 ZINC000893400114    0.0700
14     C14     3.5109    2.0182   -4.0576 C.3      1 ZINC000893400114   -0.1700
15     C15     2.8931    0.8840   -1.3117 C.2      1 ZINC000893400114    0.5100
16     O16     2.4512    0.0191   -2.0381 O.2      1 ZINC000893400114   -0.4900
17     N17    -1.1720    1.8509    0.1693 N.am     1 ZINC000893400114   -0.6300
18     C18    -1.2134    3.3218    0.1816 C.3      1 ZINC000893400114    0.0800
19     C19    -2.2354    3.7854   -0.8627 C.3      1 ZINC000893400114    0.0500
20     O20    -3.4768    3.1134   -0.6371 O.3      1 ZINC000893400114   -0.3800
21     C21    -3.4088    1.6930   -0.7846 C.3      1 ZINC000893400114    0.0600
22     C22    -2.4473    1.1223    0.2581 C.3      1 ZINC000893400114    0.1400
23     H23    -2.8686    1.2508    1.2551 H        1 ZINC000893400114    0.0800
24     C24    -2.2146   -0.3650   -0.0152 C.3      1 ZINC000893400114   -0.1200
25     C25    -3.5439   -1.1160    0.0841 C.3      1 ZINC000893400114    0.0700
26     H26    -4.0143   -0.9093    1.0454 H        1 ZINC000893400114    0.0800
27     C27    -3.3007   -2.6333   -0.0644 C.3      1 ZINC000893400114   -0.1500
28     C28    -4.5160   -3.0795   -0.9222 C.3      1 ZINC000893400114   -0.1600
29     C29    -4.7132   -1.8343   -1.8231 C.3      1 ZINC000893400114    0.0500
30     O30    -4.4126   -0.7088   -0.9795 O.3      1 ZINC000893400114   -0.3800
31     H31     1.1548    2.8416    0.1308 H        1 ZINC000893400114    0.4000
32     H32     3.1421    2.7782    1.3818 H        1 ZINC000893400114    0.1000
33     H33     4.2944    1.4100    1.2283 H        1 ZINC000893400114    0.1000
34     H34     3.6985    3.6454   -0.7329 H        1 ZINC000893400114    0.0700
35     H35     5.2410    2.7907   -0.4327 H        1 ZINC000893400114    0.0800
36     H36     5.2857    2.5676   -2.9623 H        1 ZINC000893400114    0.0900
37     H37     5.9961    0.2655   -2.4408 H        1 ZINC000893400114    0.0800
38     H38     4.4843   -0.3756   -3.1306 H        1 ZINC000893400114    0.0900
39     H39     6.6253    1.1977   -4.6350 H        1 ZINC000893400114    0.0500
40     H40     6.3089   -0.5480   -4.7815 H        1 ZINC000893400114    0.1000
41     H41     4.9576    2.7511   -5.4770 H        1 ZINC000893400114    0.0500
42     H42     3.4769    2.0900   -6.2113 H        1 ZINC000893400114    0.1000
43     H43     2.7374    1.2515   -4.0126 H        1 ZINC000893400114    0.0900
44     H44     3.0592    3.0010   -3.9236 H        1 ZINC000893400114    0.0700
45     H45    -1.5129    3.6723    1.1693 H        1 ZINC000893400114    0.0800
46     H46    -0.2291    3.7188   -0.0665 H        1 ZINC000893400114    0.0800
47     H47    -2.3828    4.8618   -0.7749 H        1 ZINC000893400114    0.1100
48     H48    -1.8689    3.5476   -1.8613 H        1 ZINC000893400114    0.0500
49     H49    -4.4004    1.2641   -0.6406 H        1 ZINC000893400114    0.1300
50     H50    -3.0466    1.4476   -1.7829 H        1 ZINC000893400114    0.0500
51     H51    -1.8004   -0.4902   -1.0156 H        1 ZINC000893400114    0.0800
52     H52    -1.5158   -0.7645    0.7199 H        1 ZINC000893400114    0.1100
53     H53    -2.3644   -2.8266   -0.5880 H        1 ZINC000893400114    0.0800
54     H54    -3.3111   -3.1249    0.9084 H        1 ZINC000893400114    0.0800
55     H55    -4.2748   -3.9604   -1.5170 H        1 ZINC000893400114    0.0800
56     H56    -5.3928   -3.2564   -0.2992 H        1 ZINC000893400114    0.0800
57     H57    -4.0273   -1.8674   -2.6696 H        1 ZINC000893400114    0.0600
58     H58    -5.7442   -1.7795   -2.1725 H        1 ZINC000893400114    0.0800
@<TRIPOS>BOND
1     1     2     2
2     2     3     am
3     2     17    am
4     3     4     1
5     3     31    1
6     4     5     1
7     4     15    1
8     4     6     1
9     6     7     1
10    6     32    1
11    6     33    1
12    7     8     1
13    7     34    1
14    7     35    1
15    8     9     1
16    8     15    am
17    9     14    1
18    9     10    1
19    9     36    1
20    10    11    1
21    10    37    1
22    10    38    1
23    11    12    1
24    11    39    1
25    11    40    1
26    12    13    1
27    13    14    1
28    13    41    1
29    13    42    1
30    14    43    1
31    14    44    1
32    15    16    2
33    17    22    1
34    17    18    1
35    18    19    1
36    18    45    1
37    18    46    1
38    19    20    1
39    19    47    1
40    19    48    1
41    20    21    1
42    21    22    1
43    21    49    1
44    21    50    1
45    22    23    1
46    22    24    1
47    24    25    1
48    24    51    1
49    24    52    1
50    25    26    1
51    25    30    1
52    25    27    1
53    27    28    1
54    27    53    1
55    27    54    1
56    28    29    1
57    28    55    1
58    28    56    1
59    29    30    1
60    29    57    1
61    29    58    1
@<TRIPOS>SUBSTRUCTURE
1   ZINC000893400114 1     RESIDUE    1   A     ZIN   1
@<TRIPOS>MOLECULE
ZINC000420486261
45	47	1	0	0
SMALL
USER_CHARGES
@<TRIPOS>ATOM
1      C1     -0.0176    1.4478    0.0100 C.3      1 ZINC000420486261    0.0400
2      O2      0.0021   -0.0041    0.0020 O.3      1 ZINC000420486261   -0.3500
3      C3     -1.1894   -0.6317    0.0100 C.2      1 ZINC000420486261    0.5100
4      O4     -2.2166    0.0157    0.0233 O.2      1 ZINC000420486261   -0.4900
5      C5     -1.2468   -2.1111    0.0026 C.ar     1 ZINC000420486261   -0.0700
6      C6     -0.0751   -2.8751   -0.0068 C.ar     1 ZINC000420486261   -0.0900
7      C7     -0.1692   -4.2559   -0.0130 C.ar     1 ZINC000420486261    0.1100
8      N8     -1.3396   -4.8562   -0.0107 N.ar     1 ZINC000420486261   -0.4200
9      C9     -2.4785   -4.1746   -0.0018 C.ar     1 ZINC000420486261    0.1900
10     C10    -3.7674   -4.9020    0.0009 C.2      1 ZINC000420486261    0.2200
11     N11    -3.9306   -6.2106    0.0007 N.2      1 ZINC000420486261   -0.4300
12     C12    -5.2658   -6.4080    0.0046 C.2      1 ZINC000420486261    0.2200
13     C13    -5.9602   -7.7187    0.0064 C.ar     1 ZINC000420486261   -0.0600
14     C14    -5.2235   -8.9007    0.0098 C.ar     1 ZINC000420486261   -0.0300
15     C15    -5.8743  -10.1178    0.0115 C.ar     1 ZINC000420486261   -0.1600
16     C16    -7.2571  -10.1688    0.0098 C.ar     1 ZINC000420486261   -0.0600
17     C17    -7.9979   -9.0024    0.0064 C.ar     1 ZINC000420486261   -0.2200
18     C18    -7.3576   -7.7732    0.0105 C.ar     1 ZINC000420486261    0.1700
19     O19    -8.0844   -6.6261    0.0073 O.3      1 ZINC000420486261   -0.2900
20     C20    -9.5071   -6.7596   -0.0005 C.3      1 ZINC000420486261    0.0600
21     C21   -10.1496   -5.3710   -0.0032 C.3      1 ZINC000420486261   -0.0900
22     C22   -11.6672   -5.5115   -0.1371 C.3      1 ZINC000420486261   -0.1500
23     C23    -9.8175   -4.6529    1.3064 C.3      1 ZINC000420486261   -0.1500
24     N24    -5.8346   -5.2291    0.0069 N.2      1 ZINC000420486261   -0.3400
25     O25    -4.9930   -4.3559    0.0099 O.3      1 ZINC000420486261    0.1000
26     C26    -2.4729   -2.7813    0.0107 C.ar     1 ZINC000420486261   -0.0700
27     H27     1.0050    1.8251    0.0023 H        1 ZINC000420486261    0.1100
28     H28    -0.5448    1.8089   -0.8731 H        1 ZINC000420486261    0.0700
29     H29    -0.5278    1.7993    0.9068 H        1 ZINC000420486261    0.0700
30     H30     0.8915   -2.3933   -0.0095 H        1 ZINC000420486261    0.1600
31     H31     0.7327   -4.8500   -0.0203 H        1 ZINC000420486261    0.1800
32     H32    -4.1441   -8.8649    0.0108 H        1 ZINC000420486261    0.1400
33     H33    -5.3021  -11.0338    0.0137 H        1 ZINC000420486261    0.1300
34     H34    -7.7597  -11.1247    0.0107 H        1 ZINC000420486261    0.1300
35     H35    -9.0769   -9.0485    0.0051 H        1 ZINC000420486261    0.1400
36     H36    -9.8160   -7.3046   -0.8924 H        1 ZINC000420486261    0.0600
37     H37    -9.8256   -7.3056    0.8875 H        1 ZINC000420486261    0.0600
38     H38    -9.7626   -4.7933   -0.8426 H        1 ZINC000420486261    0.0800
39     H39   -12.0541   -6.0892    0.7023 H        1 ZINC000420486261    0.0600
40     H40   -12.1249   -4.5223   -0.1391 H        1 ZINC000420486261    0.0700
41     H41   -11.9038   -6.0231   -1.0701 H        1 ZINC000420486261    0.0600
42     H42   -10.2044   -5.2306    2.1458 H        1 ZINC000420486261    0.0500
43     H43    -8.7363   -4.5528    1.4018 H        1 ZINC000420486261    0.0600
44     H44   -10.2752   -3.6636    1.3045 H        1 ZINC000420486261    0.0600
45     H45    -3.4007   -2.2286    0.0183 H        1 ZINC000420486261    0.1600
@<TRIPOS>BOND
1     1     2     1
2     1     27    1
3     1     28    1
4     1     29    1
5     2     3     1
6     3     4     2
7     3     5     1
8     5     26    ar
9     5     6     ar
10    6     7     ar
11    6     30    1
12    7     8     ar
13    7     31    1
14    8     9     ar
15    9     10    1
16    9     26    ar
17    10    25    1
18    10    11    2
19    11    12    1
20    12    13    1
21    12    24    2
22    13    18    ar
23    13    14    ar
24    14    15    ar
25    14    32    1
26    15    16    ar
27    15    33    1
28    16    17    ar
29    16    34    1
30    17    18    ar
31    17    35    1
32    18    19    1
33    19    20    1
34    20    21    1
35    20    36    1
36    20    37    1
37    21    22    1
38    21    23    1
39    21    38    1
40    22    39    1
41    22    40    1
42    22    41    1
43    23    42    1
44    23    43    1
45    23    44    1
46    24    25    1
47    26    45    1
@<TRIPOS>SUBSTRUCTURE
1   ZINC000420486261 1     RESIDUE    1   A     ZIN   1
@<TRIPOS>MOLECULE
ZINC000673213454
54	56	1	0	0
SMALL
USER_CHARGES
@<TRIPOS>ATOM
1      C1      3.9747   -3.1826   -2.0612 C.3      1 ZINC000673213454   -0.1700
2      C2      4.0759   -1.6596   -2.1673 C.3      1 ZINC000673213454    0.1400
3      H3      4.6158   -1.3938   -3.0761 H        1 ZINC000673213454    0.0900
4      C4      4.8248   -1.1122   -0.9506 C.3      1 ZINC000673213454   -0.1200
5      C5      5.0490    0.3913   -1.1238 C.3      1 ZINC000673213454   -0.1300
6      H6      4.1183    0.8853   -1.4024 H        1 ZINC000673213454    0.0800
7      C7      6.1429    0.6571   -2.1866 C.3      1 ZINC000673213454   -0.1500
8      C8      6.9359    1.8272   -1.5507 C.3      1 ZINC000673213454    0.0500
9      O9      6.9302    1.5116   -0.1418 O.3      1 ZINC000673213454   -0.3800
10     C10     5.6186    1.0043    0.1703 C.3      1 ZINC000673213454    0.0500
11     N11     2.7300   -1.0828   -2.2125 N.am     1 ZINC000673213454   -0.6900
12     C12     2.0521   -1.0442   -3.3768 C.2      1 ZINC000673213454    0.5100
13     O13     2.5566   -1.4873   -4.3876 O.2      1 ZINC000673213454   -0.5100
14     C14     0.6791   -0.4558   -3.4229 C.2      1 ZINC000673213454    0.5000
15     O15     0.2164    0.0828   -2.4388 O.2      1 ZINC000673213454   -0.5200
16     N16    -0.0452   -0.5232   -4.5575 N.am     1 ZINC000673213454   -0.5800
17     C17    -1.3380    0.1846   -4.6173 C.3      1 ZINC000673213454    0.1100
18     C18    -1.5215    0.8835   -5.9724 C.3      1 ZINC000673213454   -0.1700
19     C19    -0.2071    1.4989   -6.4084 C.3      1 ZINC000673213454    0.0800
20     O20     0.4998    0.5535   -7.2005 O.3      1 ZINC000673213454   -0.3800
21     C21     1.3232   -0.3670   -6.5844 C.3      1 ZINC000673213454    0.1500
22     H22     2.0657    0.1559   -5.9816 H        1 ZINC000673213454    0.0600
23     C23     2.0203   -1.1971   -7.6313 C.ar     1 ZINC000673213454   -0.0800
24     C24     1.3654   -1.5226   -8.8043 C.ar     1 ZINC000673213454   -0.0900
25     C25     2.0049   -2.2840   -9.7646 C.ar     1 ZINC000673213454   -0.1300
26     C26     3.2994   -2.7197   -9.5520 C.ar     1 ZINC000673213454   -0.1200
27     C27     3.9547   -2.3935   -8.3794 C.ar     1 ZINC000673213454   -0.1300
28     C28     3.3167   -1.6284   -7.4209 C.ar     1 ZINC000673213454   -0.0900
29     C29     0.4790   -1.2846   -5.6762 C.3      1 ZINC000673213454    0.0700
30     H30     3.4348   -3.4484   -1.1524 H        1 ZINC000673213454    0.0600
31     H31     3.4412   -3.5726   -2.9280 H        1 ZINC000673213454    0.0600
32     H32     4.9761   -3.6118   -2.0275 H        1 ZINC000673213454    0.0700
33     H33     4.2357   -1.2905   -0.0510 H        1 ZINC000673213454    0.0800
34     H34     5.7876   -1.6151   -0.8600 H        1 ZINC000673213454    0.0900
35     H35     6.7790   -0.2183   -2.3174 H        1 ZINC000673213454    0.0800
36     H36     5.6985    0.9585   -3.1351 H        1 ZINC000673213454    0.0800
37     H37     7.9559    1.8527   -1.9342 H        1 ZINC000673213454    0.0900
38     H38     6.4322    2.7764   -1.7335 H        1 ZINC000673213454    0.0600
39     H39     4.9782    1.8175    0.5118 H        1 ZINC000673213454    0.0600
40     H40     5.6915    0.2382    0.9422 H        1 ZINC000673213454    0.0900
41     H41     2.3267   -0.7286   -1.4046 H        1 ZINC000673213454    0.4100
42     H42    -2.1457   -0.5328   -4.4723 H        1 ZINC000673213454    0.0800
43     H43    -1.3752    0.9295   -3.8224 H        1 ZINC000673213454    0.0900
44     H44    -1.8455    0.1550   -6.7156 H        1 ZINC000673213454    0.0800
45     H45    -2.2749    1.6655   -5.8784 H        1 ZINC000673213454    0.0900
46     H46    -0.4009    2.3961   -6.9963 H        1 ZINC000673213454    0.1000
47     H47     0.3854    1.7556   -5.5302 H        1 ZINC000673213454    0.0500
48     H48     0.3540   -1.1822   -8.9704 H        1 ZINC000673213454    0.1300
49     H49     1.4929   -2.5389  -10.6808 H        1 ZINC000673213454    0.1200
50     H50     3.7988   -3.3152  -10.3019 H        1 ZINC000673213454    0.1200
51     H51     4.9660   -2.7341   -8.2131 H        1 ZINC000673213454    0.1200
52     H52     3.8287   -1.3735   -6.5048 H        1 ZINC000673213454    0.1300
53     H53     1.1021   -2.0960   -5.3001 H        1 ZINC000673213454    0.1200
54     H54    -0.3502   -1.6994   -6.2494 H        1 ZINC000673213454    0.0800
@<TRIPOS>BOND
1     1     2     1
2     1     30    1
3     1     31    1
4     1     32    1
5     2     3     1
6     2     4     1
7     2     11    1
8     4     5     1
9     4     33    1
10    4     34    1
11    5     6     1
12    5     10    1
13    5     7     1
14    7     8     1
15    7     35    1
16    7     36    1
17    8     9     1
18    8     37    1
19    8     38    1
20    9     10    1
21    10    39    1
22    10    40    1
23    11    12    am
24    11    41    1
25    12    13    2
26    12    14    1
27    14    15    2
28    14    16    am
29    16    29    1
30    16    17    1
31    17    18    1
32    17    42    1
33    17    43    1
34    18    19    1
35    18    44    1
36    18    45    1
37    19    20    1
38    19    46    1
39    19    47    1
40    20    21    1
41    21    22    1
42    21    23    1
43    21    29    1
44    23    28    ar
45    23    24    ar
46    24    25    ar
47    24    48    1
48    25    26    ar
49    25    49    1
50    26    27    ar
51    26    50    1
52    27    28    ar
53    27    51    1
54    28    52    1
55    29    53    1
56    29    54    1
@<TRIPOS>SUBSTRUCTURE
1   ZINC000673213454 1     RESIDUE    1   A     ZIN   1
@<TRIPOS>MOLECULE
ZINC000464139057
65	67	1	0	0
SMALL
USER_CHARGES
@<TRIPOS>ATOM
1      C1     -0.2019    2.6481   -1.8352 C.3      1 ZINC000464139057   -0.1800
2      C2     -0.3590    1.5122   -0.8224 C.3      1 ZINC000464139057    0.0700
3      H3     -1.4055    1.2114   -0.7721 H        1 ZINC000464139057    0.1200
4      C4      0.4970    0.3169   -1.2567 C.3      1 ZINC000464139057    0.0800
5      N5      1.9145    0.6935   -1.1374 N.am     1 ZINC000464139057   -0.6100
6      C6      2.7710    0.5046   -2.1607 C.2      1 ZINC000464139057    0.5600
7      O7      2.3929   -0.0462   -3.1760 O.2      1 ZINC000464139057   -0.5300
8      C8      4.1707    0.9675   -2.0482 C.ar     1 ZINC000464139057   -0.1200
9      C9      4.9226    0.6571   -0.9140 C.ar     1 ZINC000464139057   -0.0900
10     C10     6.2282    1.0917   -0.8155 C.ar     1 ZINC000464139057   -0.1000
11     C11     6.7923    1.8341   -1.8377 C.ar     1 ZINC000464139057   -0.0900
12     C12     8.2190    2.3059   -1.7230 C.3      1 ZINC000464139057    0.1800
13     N13     9.1146    1.2956   -2.2915 N.am     1 ZINC000464139057   -0.7400
14     C14    10.4463    1.5031   -2.2987 C.2      1 ZINC000464139057    0.7000
15     O15    10.9043    2.5287   -1.8333 O.2      1 ZINC000464139057   -0.5900
16     N16    11.2703    0.5736   -2.8217 N.am     1 ZINC000464139057   -0.7500
17     C17    12.7178    0.7991   -2.8295 C.3      1 ZINC000464139057    0.1400
18     C18    13.4172   -0.3993   -3.4742 C.3      1 ZINC000464139057   -0.0900
19     C19    14.9062   -0.1674   -3.4822 C.2      1 ZINC000464139057   -0.1200
20     C20    15.6386   -0.6509   -2.5296 C.2      1 ZINC000464139057   -0.1500
21     C21    17.1354   -0.4254   -2.5255 C.3      1 ZINC000464139057   -0.0900
22     C22    17.7610   -1.2781   -3.6315 C.3      1 ZINC000464139057   -0.1100
23     C23    17.7266   -0.5448   -4.9607 C.3      1 ZINC000464139057   -0.1200
24     C24    16.3240   -0.3299   -5.5013 C.3      1 ZINC000464139057   -0.1100
25     C25    15.5387    0.6241   -4.6069 C.3      1 ZINC000464139057   -0.0800
26     C26     6.0526    2.1449   -2.9649 C.ar     1 ZINC000464139057   -0.1000
27     C27     4.7477    1.7119   -3.0783 C.ar     1 ZINC000464139057   -0.0700
28     C28     2.3691    1.2827    0.1321 C.3      1 ZINC000464139057    0.0700
29     C29     1.4219    2.4309    0.4987 C.3      1 ZINC000464139057    0.0700
30     H30     1.5403    3.2435   -0.2180 H        1 ZINC000464139057    0.0700
31     C31     1.7524    2.9370    1.9043 C.3      1 ZINC000464139057   -0.1500
32     O32     0.0722    1.9579    0.4657 O.3      1 ZINC000464139057   -0.3700
33     H33     0.8448    2.9484   -1.8850 H        1 ZINC000464139057    0.0600
34     H34    -0.5292    2.3071   -2.8174 H        1 ZINC000464139057    0.0700
35     H35    -0.8094    3.4983   -1.5248 H        1 ZINC000464139057    0.0700
36     H36     0.2885   -0.5373   -0.6125 H        1 ZINC000464139057    0.0800
37     H37     0.2712    0.0605   -2.2918 H        1 ZINC000464139057    0.1000
38     H38     4.4831    0.0783   -0.1151 H        1 ZINC000464139057    0.1300
39     H39     6.8111    0.8522    0.0616 H        1 ZINC000464139057    0.1300
40     H40     8.3366    3.2431   -2.2670 H        1 ZINC000464139057    0.0800
41     H41     8.4669    2.4617   -0.6731 H        1 ZINC000464139057    0.0800
42     H42     8.7493    0.4773   -2.6628 H        1 ZINC000464139057    0.4000
43     H43    10.9049   -0.2447   -3.1930 H        1 ZINC000464139057    0.4000
44     H44    12.9421    1.7005   -3.3998 H        1 ZINC000464139057    0.0700
45     H45    13.0724    0.9191   -1.8058 H        1 ZINC000464139057    0.0700
46     H46    13.1930   -1.3008   -2.9039 H        1 ZINC000464139057    0.0700
47     H47    13.0627   -0.5194   -4.4979 H        1 ZINC000464139057    0.0800
48     H48    15.1787   -1.2179   -1.7336 H        1 ZINC000464139057    0.1100
49     H49    17.3472    0.6276   -2.7112 H        1 ZINC000464139057    0.0700
50     H50    17.5470   -0.7191   -1.5599 H        1 ZINC000464139057    0.0700
51     H51    18.7958   -1.5006   -3.3711 H        1 ZINC000464139057    0.0600
52     H52    17.2058   -2.2117   -3.7222 H        1 ZINC000464139057    0.0600
53     H53    18.2045    0.4268   -4.8353 H        1 ZINC000464139057    0.0600
54     H54    18.2973   -1.1191   -5.6905 H        1 ZINC000464139057    0.0600
55     H55    16.3868    0.0889   -6.5057 H        1 ZINC000464139057    0.0600
56     H56    15.8054   -1.2877   -5.5445 H        1 ZINC000464139057    0.0600
57     H57    14.7602    1.1155   -5.1905 H        1 ZINC000464139057    0.0700
58     H58    16.2127    1.3717   -4.1885 H        1 ZINC000464139057    0.0700
59     H59     6.4990    2.7245   -3.7594 H        1 ZINC000464139057    0.1300
60     H60     4.1714    1.9549   -3.9588 H        1 ZINC000464139057    0.1300
61     H61     2.3491    0.5257    0.9161 H        1 ZINC000464139057    0.0800
62     H62     3.3830    1.6658    0.0167 H        1 ZINC000464139057    0.1000
63     H63     2.7820    3.2938    1.9292 H        1 ZINC000464139057    0.0800
64     H64     1.0786    3.7533    2.1643 H        1 ZINC000464139057    0.0700
65     H65     1.6321    2.1244    2.6207 H        1 ZINC000464139057    0.0700
@<TRIPOS>BOND
1     1     2     1
2     1     33    1
3     1     34    1
4     1     35    1
5     2     3     1
6     2     32    1
7     2     4     1
8     4     5     1
9     4     36    1
10    4     37    1
11    5     6     am
12    5     28    1
13    6     7     2
14    6     8     1
15    8     27    ar
16    8     9     ar
17    9     10    ar
18    9     38    1
19    10    11    ar
20    10    39    1
21    11    12    1
22    11    26    ar
23    12    13    1
24    12    40    1
25    12    41    1
26    13    14    am
27    13    42    1
28    14    15    2
29    14    16    am
30    16    17    1
31    16    43    1
32    17    18    1
33    17    44    1
34    17    45    1
35    18    19    1
36    18    46    1
37    18    47    1
38    19    25    1
39    19    20    2
40    20    21    1
41    20    48    1
42    21    22    1
43    21    49    1
44    21    50    1
45    22    23    1
46    22    51    1
47    22    52    1
48    23    24    1
49    23    53    1
50    23    54    1
51    24    25    1
52    24    55    1
53    24    56    1
54    25    57    1
55    25    58    1
56    26    27    ar
57    26    59    1
58    27    60    1
59    28    29    1
60    28    61    1
61    28    62    1
62    29    30    1
63    29    31    1
64    29    32    1
65    31    63    1
66    31    64    1
67    31    65    1
@<TRIPOS>SUBSTRUCTURE
1   ZINC000464139057 1     RESIDUE    1   A     ZIN   1
@<TRIPOS>MOLECULE
ZINC001061022329
61	64	1	0	0
SMALL
USER_CHARGES
@<TRIPOS>ATOM
1      C1     -0.0187    1.5258    0.0104 C.3      1 ZINC001061022329   -0.1500
2      C2      0.0021   -0.0041    0.0020 C.3      1 ZINC001061022329   -0.1200
3      C3      0.7182   -0.4975   -1.2568 C.3      1 ZINC001061022329    0.0800
4      H4      1.7103   -0.0491   -1.3098 H        1 ZINC001061022329    0.0600
5      C5      0.8493   -2.0210   -1.2049 C.3      1 ZINC001061022329   -0.1800
6      O6     -0.0359   -0.1233   -2.4115 O.3      1 ZINC001061022329   -0.3500
7      C7      0.7591    0.1000   -3.5777 C.3      1 ZINC001061022329    0.0500
8      C8     -0.1341    0.4869   -4.7281 C.2      1 ZINC001061022329    0.5200
9      O9     -1.3335    0.5639   -4.5653 O.2      1 ZINC001061022329   -0.5100
10     N10     0.3998    0.7474   -5.9378 N.am     1 ZINC001061022329   -0.6100
11     C11     1.8503    0.6514   -6.1481 C.3      1 ZINC001061022329    0.1100
12     C12     2.3575    1.9872   -6.7044 C.3      1 ZINC001061022329   -0.1200
13     C13     1.5248    2.3684   -7.9260 C.3      1 ZINC001061022329   -0.0900
14     C14     2.0808    3.5731   -8.6976 C.3      1 ZINC001061022329    0.1200
15     N15     1.7655    2.8048   -9.9186 N.am     1 ZINC001061022329   -0.6400
16     C16     1.5081    3.1331  -11.2002 C.2      1 ZINC001061022329    0.5400
17     O17     1.5096    4.2973  -11.5401 O.2      1 ZINC001061022329   -0.5300
18     C18     1.2184    2.0534  -12.2109 C.3      1 ZINC001061022329   -0.0900
19     H19     0.3369    1.4925  -11.9004 H        1 ZINC001061022329    0.1000
20     C20     2.4178    1.1076  -12.3045 C.3      1 ZINC001061022329   -0.1000
21     C21     2.9645    1.1120  -13.7378 C.3      1 ZINC001061022329   -0.0600
22     H22     3.8519    0.4838  -13.8148 H        1 ZINC001061022329    0.0800
23     C23     3.2887    2.5516  -14.1087 C.2      1 ZINC001061022329   -0.1800
24     C24     2.2456    3.3742  -14.0273 C.2      1 ZINC001061022329   -0.1300
25     C25     0.9609    2.6924  -13.5816 C.3      1 ZINC001061022329   -0.0400
26     H26     0.1392    3.4071  -13.5373 H        1 ZINC001061022329    0.0900
27     C27     0.6547    1.5727  -14.5859 C.3      1 ZINC001061022329   -0.1100
28     C28     1.8592    0.6102  -14.6772 C.3      1 ZINC001061022329   -0.1100
29     C29     1.8462    1.5329   -9.1730 C.3      1 ZINC001061022329    0.1100
30     C30     0.0311    2.4699   -7.6274 C.3      1 ZINC001061022329   -0.1100
31     C31    -0.4612    1.1254   -7.0662 C.3      1 ZINC001061022329    0.1100
32     H32     1.0039    1.9031    0.0027 H        1 ZINC001061022329    0.0500
33     H33    -0.5459    1.8868   -0.8726 H        1 ZINC001061022329    0.0600
34     H34    -0.5289    1.8773    0.9072 H        1 ZINC001061022329    0.0600
35     H35     0.5293   -0.3651    0.8851 H        1 ZINC001061022329    0.0800
36     H36    -1.0205   -0.3814    0.0098 H        1 ZINC001061022329    0.0700
37     H37     1.3594   -2.3725   -2.1017 H        1 ZINC001061022329    0.0600
38     H38     1.4245   -2.3064   -0.3242 H        1 ZINC001061022329    0.0700
39     H39    -0.1428   -2.4694   -1.1520 H        1 ZINC001061022329    0.0700
40     H40     1.4706    0.9028   -3.3842 H        1 ZINC001061022329    0.0800
41     H41     1.3002   -0.8124   -3.8287 H        1 ZINC001061022329    0.0800
42     H42     2.3438    0.4396   -5.1995 H        1 ZINC001061022329    0.0900
43     H43     2.0645   -0.1459   -6.8599 H        1 ZINC001061022329    0.0800
44     H44     2.2606    2.7599   -5.9418 H        1 ZINC001061022329    0.0800
45     H45     3.4039    1.8879   -6.9932 H        1 ZINC001061022329    0.0800
46     H46     1.4875    4.4803   -8.5834 H        1 ZINC001061022329    0.0800
47     H47     3.1474    3.7386   -8.5454 H        1 ZINC001061022329    0.0900
48     H48     3.1965    1.4396  -11.6178 H        1 ZINC001061022329    0.0700
49     H49     2.1055    0.0978  -12.0381 H        1 ZINC001061022329    0.0700
50     H50     4.2738    2.8758  -14.4100 H        1 ZINC001061022329    0.1200
51     H51     2.3058    4.4280  -14.2560 H        1 ZINC001061022329    0.1200
52     H52    -0.2214    1.0161  -14.2532 H        1 ZINC001061022329    0.0700
53     H53     0.4579    2.0076  -15.5658 H        1 ZINC001061022329    0.0700
54     H54     2.2342    0.5939  -15.7005 H        1 ZINC001061022329    0.0700
55     H55     1.5448   -0.3931  -14.3898 H        1 ZINC001061022329    0.0700
56     H56     2.8431    1.0921   -9.1620 H        1 ZINC001061022329    0.0900
57     H57     1.0664    0.8184   -9.4366 H        1 ZINC001061022329    0.0800
58     H58    -0.1414    3.2583   -6.8948 H        1 ZINC001061022329    0.0800
59     H59    -0.5093    2.6998   -8.5457 H        1 ZINC001061022329    0.0800
60     H60    -0.4087    0.3636   -7.8440 H        1 ZINC001061022329    0.0700
61     H61    -1.4900    1.2281   -6.7212 H        1 ZINC001061022329    0.1000
@<TRIPOS>BOND
1     1     2     1
2     1     32    1
3     1     33    1
4     1     34    1
5     2     3     1
6     2     35    1
7     2     36    1
8     3     4     1
9     3     5     1
10    3     6     1
11    5     37    1
12    5     38    1
13    5     39    1
14    6     7     1
15    7     8     1
16    7     40    1
17    7     41    1
18    8     9     2
19    8     10    am
20    10    31    1
21    10    11    1
22    11    12    1
23    11    42    1
24    11    43    1
25    12    13    1
26    12    44    1
27    12    45    1
28    13    29    1
29    13    14    1
30    13    30    1
31    14    15    1
32    14    46    1
33    14    47    1
34    15    16    am
35    15    29    1
36    16    17    2
37    16    18    1
38    18    19    1
39    18    25    1
40    18    20    1
41    20    21    1
42    20    48    1
43    20    49    1
44    21    22    1
45    21    28    1
46    21    23    1
47    23    24    2
48    23    50    1
49    24    25    1
50    24    51    1
51    25    26    1
52    25    27    1
53    27    28    1
54    27    52    1
55    27    53    1
56    28    54    1
57    28    55    1
58    29    56    1
59    29    57    1
60    30    31    1
61    30    58    1
62    30    59    1
63    31    60    1
64    31    61    1
@<TRIPOS>SUBSTRUCTURE
1   ZINC001061022329 1     RESIDUE    1   A     ZIN   1
@<TRIPOS>MOLECULE
ZINC000457806032
42	43	1	0	0
SMALL
USER_CHARGES
@<TRIPOS>ATOM
1      C1     -0.0178    1.4608    0.0101 C.3      1 ZINC000457806032    0.0800
2      N2      0.0021   -0.0041    0.0020 N.am     1 ZINC000457806032   -1.0100
3      C3      0.0241   -0.7433    1.2666 C.3      1 ZINC000457806032    0.0900
4      S4     -0.0004   -0.8243   -1.4366 S.o2     1 ZINC000457806032    2.7900
5      O5     -0.5247   -2.1160   -1.1611 O.2      1 ZINC000457806032   -0.9700
6      O6     -0.5660    0.0551   -2.3989 O.2      1 ZINC000457806032   -0.9700
7      N7      1.5805   -1.0455   -1.8774 N.am     1 ZINC000457806032   -1.1300
8      C8      2.4582   -1.8864   -1.0596 C.3      1 ZINC000457806032    0.1100
9      C9      3.7196   -2.2308   -1.8539 C.3      1 ZINC000457806032    0.1100
10     N10     4.5973   -3.0717   -1.0361 N.am     1 ZINC000457806032   -0.7300
11     C11     5.7745   -3.5003   -1.5330 C.2      1 ZINC000457806032    0.5800
12     O12     6.1082   -3.1890   -2.6605 O.2      1 ZINC000457806032   -0.5300
13     C13     6.6566   -4.3454   -0.7110 C.2      1 ZINC000457806032   -0.1500
14     C14     6.3414   -4.7350    0.5558 C.2      1 ZINC000457806032   -0.2200
15     S15     7.5842   -5.7027    1.2110 S.3      1 ZINC000457806032    0.2400
16     C16     8.5390   -5.5721   -0.2579 C.2      1 ZINC000457806032   -0.1700
17     C17     9.8616   -6.1993   -0.4691 C.ar     1 ZINC000457806032   -0.0100
18     C18    10.5348   -6.0238   -1.6787 C.ar     1 ZINC000457806032   -0.0900
19     C19    11.7682   -6.6113   -1.8701 C.ar     1 ZINC000457806032   -0.1000
20     C20    12.3380   -7.3743   -0.8649 C.ar     1 ZINC000457806032   -0.0300
21     Cl21   13.8902   -8.1110   -1.1131 Cl       1 ZINC000457806032   -0.0600
22     C22    11.6749   -7.5516    0.3376 C.ar     1 ZINC000457806032   -0.1000
23     C23    10.4436   -6.9642    0.5425 C.ar     1 ZINC000457806032   -0.1000
24     C24     7.8878   -4.8237   -1.1624 C.2      1 ZINC000457806032   -0.0700
25     H25     1.0048    1.8381    0.0023 H        1 ZINC000457806032    0.0600
26     H26    -0.5450    1.8219   -0.8730 H        1 ZINC000457806032    0.0800
27     H27    -0.5280    1.8123    0.9069 H        1 ZINC000457806032    0.0800
28     H28    -0.9979   -0.9406    1.5900 H        1 ZINC000457806032    0.0600
29     H29     0.5496   -1.6879    1.1262 H        1 ZINC000457806032    0.0700
30     H30     0.5371   -0.1514    2.0246 H        1 ZINC000457806032    0.0700
31     H31     1.9253   -0.6184   -2.6771 H        1 ZINC000457806032    0.4200
32     H32     2.7353   -1.3484   -0.1530 H        1 ZINC000457806032    0.0700
33     H33     1.9354   -2.8046   -0.7917 H        1 ZINC000457806032    0.0900
34     H34     3.4425   -2.7688   -2.7605 H        1 ZINC000457806032    0.0800
35     H35     4.2423   -1.3126   -2.1218 H        1 ZINC000457806032    0.0800
36     H36     4.3312   -3.3199   -0.1369 H        1 ZINC000457806032    0.4000
37     H37     5.4316   -4.4684    1.0731 H        1 ZINC000457806032    0.1700
38     H38    10.0910   -5.4294   -2.4637 H        1 ZINC000457806032    0.1400
39     H39    12.2902   -6.4761   -2.8058 H        1 ZINC000457806032    0.1400
40     H40    12.1242   -8.1478    1.1180 H        1 ZINC000457806032    0.1400
41     H41     9.9274   -7.1029    1.4810 H        1 ZINC000457806032    0.1300
42     H42     8.2829   -4.6056   -2.1436 H        1 ZINC000457806032    0.1600
@<TRIPOS>BOND
1     1     2     1
2     1     25    1
3     1     26    1
4     1     27    1
5     2     3     1
6     2     4     am
7     3     28    1
8     3     29    1
9     3     30    1
10    4     5     2
11    4     6     2
12    4     7     am
13    7     8     1
14    7     31    1
15    8     9     1
16    8     32    1
17    8     33    1
18    9     10    1
19    9     34    1
20    9     35    1
21    10    11    am
22    10    36    1
23    11    12    2
24    11    13    1
25    13    24    1
26    13    14    2
27    14    15    1
28    14    37    1
29    15    16    1
30    16    17    1
31    16    24    2
32    17    23    ar
33    17    18    ar
34    18    19    ar
35    18    38    1
36    19    20    ar
37    19    39    1
38    20    21    1
39    20    22    ar
40    22    23    ar
41    22    40    1
42    23    41    1
43    24    42    1
@<TRIPOS>SUBSTRUCTURE
1   ZINC000457806032 1     RESIDUE    1   A     ZIN   1
@<TRIPOS>MOLECULE
ZINC000286156371
51	53	0	0	0
SMALL
USER_CHARGES
@<TRIPOS>ATOM
1 C1       -0.0187     1.5258     0.0104 C.3    1 <0>      -0.1800
2 C2        0.0021    -0.0041     0.0020 C.3    1 <0>       0.1400
3 C3        0.7421    -0.5109     1.2415 C.3    1 <0>      -0.1800
4 C4       -1.4333    -0.5336     0.0129 C.3    1 <0>      -0.1400
5 O5        0.6817    -0.4723    -1.1926 O.3    1 <0>      -0.3600
6 C6        1.9630    -0.0923    -1.3556 C.2    1 <0>       0.6800
7 O7        2.4986     0.6115    -0.5223 O.2    1 <0>      -0.5600
8 N8        2.6515    -0.4924    -2.4429 N.am   1 <0>      -0.5800
9 C9        2.1253    -1.3380    -3.5299 C.3    1 <0>       0.0700
10 C10       3.0084    -1.0012    -4.7573 C.3    1 <0>       0.0900
11 H11       3.0237    -1.8288    -5.4664 H      1 <0>       0.0900
12 O12       2.5695     0.2031    -5.3890 O.3    1 <0>      -0.5500
13 C13       4.3992    -0.8088    -4.0969 C.3    1 <0>      -0.1200
14 C14       4.0497    -0.1525    -2.7447 C.3    1 <0>       0.1500
15 H15       4.1664     0.9288    -2.8164 H      1 <0>       0.1100
16 C16       4.9496    -0.6945    -1.6642 C.2    1 <0>       0.5200
17 O17       4.5464    -1.5606    -0.9170 O.2    1 <0>      -0.4900
18 N18       6.2025    -0.2167    -1.5282 N.am   1 <0>      -0.6300
19 C19       7.0395    -0.7207    -0.5233 C.2    1 <0>       0.3000
20 N20       8.2732    -0.3378    -0.2830 N.2    1 <0>      -0.3200
21 N21       8.7556    -1.0806     0.7969 N.pl3  1 <0>      -0.3600
22 C22      10.0812    -0.9942     1.4173 C.3    1 <0>       0.1400
23 C23      10.0234    -1.6532     2.7994 C.3    1 <0>      -0.1400
24 C24       9.3946    -3.0444     2.6781 C.3    1 <0>      -0.1300
25 C25       7.9048    -2.8970     2.3421 C.3    1 <0>      -0.0600
26 C26       7.7745    -1.9223     1.1976 C.2    1 <0>       0.0900
27 C27       6.7030    -1.7196     0.4069 C.2    1 <0>      -0.2600
28 H28       1.0039     1.9031     0.0027 H      1 <0>       0.0900
29 H29      -0.5459     1.8868    -0.8726 H      1 <0>       0.0600
30 H30      -0.5289     1.8773     0.9072 H      1 <0>       0.0700
31 H31       0.2319    -0.1594     2.1383 H      1 <0>       0.0700
32 H32       0.7568    -1.6008     1.2356 H      1 <0>       0.0600
33 H33       1.7647    -0.1336     1.2338 H      1 <0>       0.0900
34 H34      -1.9605    -0.1726    -0.8702 H      1 <0>       0.0700
35 H35      -1.4185    -1.6235     0.0069 H      1 <0>       0.0700
36 H36      -1.9435    -0.1821     0.9097 H      1 <0>       0.0800
37 H37       2.2220    -2.3924    -3.2709 H      1 <0>       0.0800
38 H38       1.0834    -1.0903    -3.7328 H      1 <0>       0.0900
39 H39       1.6660     0.1610    -5.7312 H      1 <0>       0.3900
40 H40       4.8915    -1.7698    -3.9476 H      1 <0>       0.1000
41 H41       5.0219    -0.1443    -4.6960 H      1 <0>       0.1100
42 H42       6.5250     0.4760    -2.1258 H      1 <0>       0.4200
43 H43      10.8102    -1.5133     0.7951 H      1 <0>       0.0800
44 H44      10.3674     0.0522     1.5231 H      1 <0>       0.0900
45 H45      11.0328    -1.7448     3.2005 H      1 <0>       0.0900
46 H46       9.4210    -1.0397     3.4694 H      1 <0>       0.0800
47 H47       9.8934    -3.6016     1.8851 H      1 <0>       0.0700
48 H48       9.5038    -3.5771     3.6228 H      1 <0>       0.0800
49 H49       7.4962    -3.8643     2.0497 H      1 <0>       0.0900
50 H50       7.3675    -2.5176     3.2113 H      1 <0>       0.0900
51 H51       5.7558    -2.2341     0.4741 H      1 <0>       0.1700
@<TRIPOS>BOND
1    1    2 1
2    1   28 1
3    1   29 1
4    1   30 1
5    2    3 1
6    2    4 1
7    2    5 1
8    3   31 1
9    3   32 1
10    3   33 1
11    4   34 1
12    4   35 1
13    4   36 1
14    5    6 1
15    6    7 2
16    6    8 am
17    8   14 1
18    8    9 1
19    9   10 1
20    9   37 1
21    9   38 1
22   10   11 1
23   10   12 1
24   10   13 1
25   12   39 1
26   13   14 1
27   13   40 1
28   13   41 1
29   14   15 1
30   14   16 1
31   16   17 2
32   16   18 am
33   18   19 1
34   18   42 1
35   19   27 1
36   19   20 2
37   20   21 1
38   21   26 1
39   21   22 1
40   22   23 1
41   22   43 1
42   22   44 1
43   23   24 1
44   23   45 1
45   23   46 1
46   24   25 1
47   24   47 1
48   24   48 1
49   25   26 1
50   25   49 1
51   25   50 1
52   26   27 2
53   27   51 1
@<TRIPOS>MOLECULE
ZINC000465392830
62	64	1	0	0
SMALL
USER_CHARGES
@<TRIPOS>ATOM
1      C1     -0.0176    1.4478    0.0100 C.3      1 ZINC000465392830    0.0400
2      O2      0.0021   -0.0041    0.0020 O.3      1 ZINC000465392830   -0.3600
3      C3      0.5984   -0.5997   -1.0427 C.2      1 ZINC000465392830    0.4600
4      O4      1.0877    0.0699   -1.9214 O.2      1 ZINC000465392830   -0.4900
5      C5      0.6575   -2.1036   -1.1196 C.3      1 ZINC000465392830    0.1500
6      H6      0.8731   -2.5168   -0.1343 H        1 ZINC000465392830    0.1100
7      C7     -0.6871   -2.6559   -1.6377 C.3      1 ZINC000465392830   -0.1100
8      C8     -0.2506   -3.8270   -2.5572 C.3      1 ZINC000465392830   -0.0900
9      H9     -0.0574   -4.7288   -1.9761 H        1 ZINC000465392830    0.1000
10     C10    -1.2961   -4.0911   -3.6426 C.3      1 ZINC000465392830   -0.0800
11     C11    -0.8315   -5.2498   -4.5271 C.3      1 ZINC000465392830   -0.1200
12     C12    -1.8769   -5.5139   -5.6125 C.3      1 ZINC000465392830   -0.1200
13     C13    -3.2117   -5.8755   -4.9578 C.3      1 ZINC000465392830   -0.1200
14     C14    -3.6763   -4.7168   -4.0733 C.3      1 ZINC000465392830   -0.1200
15     C15    -2.6308   -4.4527   -2.9879 C.3      1 ZINC000465392830   -0.1200
16     C16     1.0586   -3.2701   -3.1699 C.3      1 ZINC000465392830    0.1000
17     N17     1.6985   -2.5149   -2.0730 N.am     1 ZINC000465392830   -0.6100
18     C18     3.0150   -2.2463   -1.9678 C.2      1 ZINC000465392830    0.5400
19     O19     3.4312   -1.6146   -1.0199 O.2      1 ZINC000465392830   -0.5300
20     C20     3.9699   -2.7311   -3.0281 C.3      1 ZINC000465392830   -0.1300
21     C21     5.3925   -2.2954   -2.6710 C.3      1 ZINC000465392830   -0.0600
22     C22     6.3474   -2.7802   -3.7313 C.ar     1 ZINC000465392830   -0.2000
23     C23     6.9500   -4.0242   -3.6261 C.ar     1 ZINC000465392830    0.2000
24     C24     6.6587   -4.9153   -2.4462 C.3      1 ZINC000465392830   -0.1100
25     N25     7.7833   -4.4197   -4.5739 N.ar     1 ZINC000465392830   -0.5000
26     C26     8.0440   -3.6415   -5.6148 C.ar     1 ZINC000465392830    0.3000
27     S27     9.1605   -4.2083   -6.8545 S.3      1 ZINC000465392830    0.0000
28     C28     9.1295   -2.7895   -7.9779 C.3      1 ZINC000465392830   -0.1400
29     N29     7.4841   -2.4471   -5.7454 N.ar     1 ZINC000465392830   -0.5300
30     C30     6.6377   -1.9942   -4.8356 C.ar     1 ZINC000465392830    0.2000
31     C31     6.0056   -0.6351   -4.9916 C.3      1 ZINC000465392830   -0.1100
32     H32     1.0050    1.8251    0.0023 H        1 ZINC000465392830    0.0600
33     H33    -0.5448    1.8089   -0.8731 H        1 ZINC000465392830    0.0600
34     H34    -0.5278    1.7993    0.9068 H        1 ZINC000465392830    0.1000
35     H35    -1.2979   -3.0209   -0.8120 H        1 ZINC000465392830    0.1000
36     H36    -1.2219   -1.8965   -2.2081 H        1 ZINC000465392830    0.0800
37     H37    -1.4211   -3.1961   -4.2521 H        1 ZINC000465392830    0.0800
38     H38     0.1194   -4.9922   -4.9935 H        1 ZINC000465392830    0.0600
39     H39    -0.7065   -6.1448   -3.9176 H        1 ZINC000465392830    0.0700
40     H40    -2.0019   -4.6189   -6.2221 H        1 ZINC000465392830    0.0600
41     H41    -1.5459   -6.3394   -6.2427 H        1 ZINC000465392830    0.0600
42     H42    -3.9565   -6.0636   -5.7311 H        1 ZINC000465392830    0.0600
43     H43    -3.0867   -6.7705   -4.3483 H        1 ZINC000465392830    0.0600
44     H44    -3.8013   -3.8218   -4.6828 H        1 ZINC000465392830    0.0600
45     H45    -4.6272   -4.9744   -3.6068 H        1 ZINC000465392830    0.0600
46     H46    -2.5059   -5.3477   -2.3783 H        1 ZINC000465392830    0.0700
47     H47    -2.9619   -3.6272   -2.3577 H        1 ZINC000465392830    0.0600
48     H48     1.7038   -4.0870   -3.4929 H        1 ZINC000465392830    0.0900
49     H49     0.8344   -2.6088   -4.0069 H        1 ZINC000465392830    0.0800
50     H50     3.9268   -3.8188   -3.0860 H        1 ZINC000465392830    0.1000
51     H51     3.6903   -2.3046   -3.9914 H        1 ZINC000465392830    0.1000
52     H52     5.4356   -1.2078   -2.6130 H        1 ZINC000465392830    0.0900
53     H53     5.6721   -2.7220   -1.7077 H        1 ZINC000465392830    0.0900
54     H54     5.8049   -5.5531   -2.6747 H        1 ZINC000465392830    0.0900
55     H55     7.5298   -5.5359   -2.2358 H        1 ZINC000465392830    0.0900
56     H56     6.4309   -4.3015   -1.5748 H        1 ZINC000465392830    0.0900
57     H57     8.1122   -2.6322   -8.3365 H        1 ZINC000465392830    0.0900
58     H58     9.4698   -1.8995   -7.4487 H        1 ZINC000465392830    0.0900
59     H59     9.7876   -2.9825   -8.8251 H        1 ZINC000465392830    0.1100
60     H60     5.0718   -0.7302   -5.5457 H        1 ZINC000465392830    0.0900
61     H61     5.8026   -0.2137   -4.0071 H        1 ZINC000465392830    0.0900
62     H62     6.6852    0.0215   -5.5348 H        1 ZINC000465392830    0.0800
@<TRIPOS>BOND
1     1     2     1
2     1     32    1
3     1     33    1
4     1     34    1
5     2     3     1
6     3     4     2
7     3     5     1
8     5     6     1
9     5     17    1
10    5     7     1
11    7     8     1
12    7     35    1
13    7     36    1
14    8     9     1
15    8     10    1
16    8     16    1
17    10    15    1
18    10    11    1
19    10    37    1
20    11    12    1
21    11    38    1
22    11    39    1
23    12    13    1
24    12    40    1
25    12    41    1
26    13    14    1
27    13    42    1
28    13    43    1
29    14    15    1
30    14    44    1
31    14    45    1
32    15    46    1
33    15    47    1
34    16    17    1
35    16    48    1
36    16    49    1
37    17    18    am
38    18    19    2
39    18    20    1
40    20    21    1
41    20    50    1
42    20    51    1
43    21    22    1
44    21    52    1
45    21    53    1
46    22    30    ar
47    22    23    ar
48    23    24    1
49    23    25    ar
50    24    54    1
51    24    55    1
52    24    56    1
53    25    26    ar
54    26    27    1
55    26    29    ar
56    27    28    1
57    28    57    1
58    28    58    1
59    28    59    1
60    29    30    ar
61    30    31    1
62    31    60    1
63    31    61    1
64    31    62    1
@<TRIPOS>SUBSTRUCTURE
1   ZINC000465392830 1     RESIDUE    1   A     ZIN   1
@<TRIPOS>MOLECULE
ZINC000277085192
37	39	1	0	0
SMALL
USER_CHARGES
@<TRIPOS>ATOM
1      O1      0.0015   -0.0045    0.0029 O.2      1 ZINC000277085192   -0.5000
2      C2     -0.0146    1.2083    0.0139 C.2      1 ZINC000277085192    0.5000
3      C3      1.2804    1.9790    0.0168 C.3      1 ZINC000277085192    0.1100
4      N4      2.4064    1.0419    0.0049 N.am     1 ZINC000277085192   -0.6000
5      C5      2.9612    0.5640    1.2727 C.3      1 ZINC000277085192    0.1100
6      C6      3.3958   -0.8957    1.1229 C.3      1 ZINC000277085192   -0.1600
7      C7      4.1856   -1.0492   -0.1526 C.2      1 ZINC000277085192    0.5200
8      O8      5.1039   -1.8389   -0.2060 O.2      1 ZINC000277085192   -0.5000
9      N9      3.8702   -0.3096   -1.2316 N.am     1 ZINC000277085192   -0.6700
10     C10     2.9117    0.6290   -1.1689 C.2      1 ZINC000277085192    0.7200
11     O11     2.4973    1.1233   -2.1990 O.2      1 ZINC000277085192   -0.5500
12     N12    -1.1906    1.8666    0.0178 N.am     1 ZINC000277085192   -0.6700
13     C13    -2.3918    1.1548   -0.0860 C.ar     1 ZINC000277085192    0.1400
14     C14    -2.5082   -0.0934    0.4970 C.ar     1 ZINC000277085192   -0.0400
15     C15    -3.7119   -0.8077    0.3928 C.ar     1 ZINC000277085192   -0.1700
16     C16    -4.7840   -0.2465   -0.3018 C.ar     1 ZINC000277085192   -0.0500
17     C17    -4.6558    1.0024   -0.8801 C.ar     1 ZINC000277085192   -0.0900
18     C18    -3.4704    1.7061   -0.7713 C.ar     1 ZINC000277085192   -0.0300
19     Cl19   -3.3228    3.2737   -1.5024 Cl       1 ZINC000277085192   -0.0500
20     C20    -5.9573   -1.1969   -0.2751 C.3      1 ZINC000277085192   -0.0800
21     C21    -5.4978   -2.4266    0.5201 C.3      1 ZINC000277085192   -0.1700
22     C22    -4.0725   -2.1334    0.9208 C.2      1 ZINC000277085192    0.4100
23     O23    -3.3501   -2.8631    1.5660 O.2      1 ZINC000277085192   -0.4300
24     H24     1.3271    2.6144   -0.8676 H        1 ZINC000277085192    0.1300
25     H25     1.3326    2.5983    0.9123 H        1 ZINC000277085192    0.1200
26     H26     3.8230    1.1734    1.5447 H        1 ZINC000277085192    0.0800
27     H27     2.2030    0.6391    2.0522 H        1 ZINC000277085192    0.1000
28     H28     4.0170   -1.1798    1.9723 H        1 ZINC000277085192    0.1300
29     H29     2.5145   -1.5360    1.0848 H        1 ZINC000277085192    0.1200
30     H30     4.3395   -0.4592   -2.0672 H        1 ZINC000277085192    0.4300
31     H31    -1.2048    2.8336    0.0927 H        1 ZINC000277085192    0.4200
32     H32    -1.6725   -0.5191    1.0325 H        1 ZINC000277085192    0.1500
33     H33    -5.4880    1.4330   -1.4171 H        1 ZINC000277085192    0.1500
34     H34    -6.8079   -0.7277    0.2194 H        1 ZINC000277085192    0.1000
35     H35    -6.2272   -1.4870   -1.2905 H        1 ZINC000277085192    0.1000
36     H36    -6.1198   -2.5576    1.4056 H        1 ZINC000277085192    0.1100
37     H37    -5.5384   -3.3179   -0.1061 H        1 ZINC000277085192    0.1100
@<TRIPOS>BOND
1     1     2     2
2     2     3     1
3     2     12    am
4     3     4     1
5     3     24    1
6     3     25    1
7     4     10    am
8     4     5     1
9     5     6     1
10    5     26    1
11    5     27    1
12    6     7     1
13    6     28    1
14    6     29    1
15    7     8     2
16    7     9     am
17    9     10    am
18    9     30    1
19    10    11    2
20    12    13    1
21    12    31    1
22    13    18    ar
23    13    14    ar
24    14    15    ar
25    14    32    1
26    15    22    1
27    15    16    ar
28    16    17    ar
29    16    20    1
30    17    18    ar
31    17    33    1
32    18    19    1
33    20    21    1
34    20    34    1
35    20    35    1
36    21    22    1
37    21    36    1
38    21    37    1
39    22    23    2
@<TRIPOS>SUBSTRUCTURE
1   ZINC000277085192 1     RESIDUE    1   A     ZIN   1
@<TRIPOS>MOLECULE
ZINC001067560454
51	54	1	0	0
SMALL
USER_CHARGES
@<TRIPOS>ATOM
1      C1     -0.0187    1.5258    0.0104 C.3      1 ZINC001067560454   -0.1500
2      C2      0.0021   -0.0041    0.0020 C.3      1 ZINC001067560454    0.1000
3      H3     -1.0206   -0.3812    0.0098 H        1 ZINC001067560454    0.0600
4      C4      0.7180   -0.4974   -1.2574 C.3      1 ZINC001067560454   -0.1200
5      C5      0.7540   -2.0281   -1.2516 C.3      1 ZINC001067560454    0.1400
6      H6     -0.2642   -2.4166   -1.2757 H        1 ZINC001067560454    0.0900
7      N7      1.4878   -2.5050   -2.4265 N.am     1 ZINC001067560454   -0.7200
8      C8      1.2437   -3.7352   -2.9199 C.2      1 ZINC001067560454    0.5400
9      O9      0.4165   -4.4474   -2.3914 O.2      1 ZINC001067560454   -0.5300
10     C10     1.9986   -4.2258   -4.1285 C.3      1 ZINC001067560454   -0.1100
11     C11     2.0083   -3.2123   -5.2746 C.3      1 ZINC001067560454   -0.1300
12     C12     3.3873   -4.7973   -3.7972 C.3      1 ZINC001067560454   -0.1200
13     C13     2.6960   -6.1582   -3.6104 C.3      1 ZINC001067560454   -0.1400
14     C14     1.6049   -5.6466   -4.5658 C.3      1 ZINC001067560454   -0.1200
15     C15     1.4553   -2.5095    0.0215 C.3      1 ZINC001067560454   -0.1200
16     C16     0.7181   -1.9579    1.2439 C.3      1 ZINC001067560454    0.0600
17     N17     0.7119   -0.4903    1.1920 N.3      1 ZINC001067560454   -0.4900
18     C18     0.1679    0.0445    2.3467 C.ar     1 ZINC001067560454    0.4400
19     C19    -1.1202   -0.3226    2.7715 C.ar     1 ZINC001067560454   -0.0800
20     N20    -2.0789   -1.1539    2.2972 N.2      1 ZINC001067560454   -0.4700
21     C21    -3.1089   -1.1254    3.0922 C.2      1 ZINC001067560454    0.2700
22     N22    -2.8739   -0.2715    4.1285 N.pl3    1 ZINC001067560454   -0.4800
23     C23    -3.7928    0.0297    5.2290 C.3      1 ZINC001067560454    0.0800
24     C24    -1.6187    0.2536    3.9523 C.ar     1 ZINC001067560454    0.2800
25     N25    -0.8605    1.1173    4.6195 N.ar     1 ZINC001067560454   -0.5200
26     C26     0.3413    1.4314    4.1836 C.ar     1 ZINC001067560454    0.3300
27     N27     0.8538    0.9131    3.0826 N.ar     1 ZINC001067560454   -0.5100
28     H28     1.0039    1.9031    0.0027 H        1 ZINC001067560454    0.0700
29     H29    -0.5459    1.8868   -0.8726 H        1 ZINC001067560454    0.0700
30     H30    -0.5289    1.8773    0.9072 H        1 ZINC001067560454    0.0500
31     H31     0.1821   -0.1493   -2.1405 H        1 ZINC001067560454    0.0800
32     H32     1.7365   -0.1095   -1.2726 H        1 ZINC001067560454    0.0800
33     H33     2.1494   -1.9354   -2.8492 H        1 ZINC001067560454    0.4000
34     H34     2.3211   -2.2391   -4.8964 H        1 ZINC001067560454    0.0600
35     H35     2.7037   -3.5430   -6.0461 H        1 ZINC001067560454    0.0700
36     H36     1.0070   -3.1329   -5.6979 H        1 ZINC001067560454    0.0600
37     H37     4.0816   -4.7718   -4.6371 H        1 ZINC001067560454    0.0900
38     H38     3.8169   -4.3961   -2.8793 H        1 ZINC001067560454    0.0700
39     H39     3.2673   -6.9965   -4.0090 H        1 ZINC001067560454    0.0700
40     H40     2.3407   -6.3317   -2.5947 H        1 ZINC001067560454    0.0800
41     H41     0.5956   -5.9311   -4.2683 H        1 ZINC001067560454    0.0800
42     H42     1.8119   -5.8533   -5.6158 H        1 ZINC001067560454    0.0900
43     H43     1.4463   -3.5990    0.0522 H        1 ZINC001067560454    0.0800
44     H44     2.4855   -2.1532    0.0265 H        1 ZINC001067560454    0.0800
45     H45    -0.3080   -2.3257    1.2457 H        1 ZINC001067560454    0.0700
46     H46     1.2233   -2.2870    2.1519 H        1 ZINC001067560454    0.0800
47     H47    -4.0162   -1.6940    2.9514 H        1 ZINC001067560454    0.2300
48     H48    -3.6206   -0.6689    6.0478 H        1 ZINC001067560454    0.0800
49     H49    -3.6206    1.0479    5.5778 H        1 ZINC001067560454    0.0900
50     H50    -4.8211   -0.0658    4.8802 H        1 ZINC001067560454    0.0900
51     H51     0.9316    2.1368    4.7496 H        1 ZINC001067560454    0.2100
@<TRIPOS>BOND
1     1     2     1
2     1     28    1
3     1     29    1
4     1     30    1
5     2     3     1
6     2     17    1
7     2     4     1
8     4     5     1
9     4     31    1
10    4     32    1
11    5     6     1
12    5     7     1
13    5     15    1
14    7     8     am
15    7     33    1
16    8     9     2
17    8     10    1
18    10    14    1
19    10    11    1
20    10    12    1
21    11    34    1
22    11    35    1
23    11    36    1
24    12    13    1
25    12    37    1
26    12    38    1
27    13    14    1
28    13    39    1
29    13    40    1
30    14    41    1
31    14    42    1
32    15    16    1
33    15    43    1
34    15    44    1
35    16    17    1
36    16    45    1
37    16    46    1
38    17    18    1
39    18    27    ar
40    18    19    ar
41    19    24    ar
42    19    20    1
43    20    21    2
44    21    22    1
45    21    47    1
46    22    23    1
47    22    24    1
48    23    48    1
49    23    49    1
50    23    50    1
51    24    25    ar
52    25    26    ar
53    26    27    ar
54    26    51    1
@<TRIPOS>SUBSTRUCTURE
1   ZINC001067560454 1     RESIDUE    1   A     ZIN   1
@<TRIPOS>MOLECULE
ZINC000981700465
50	52	1	0	0
SMALL
USER_CHARGES
@<TRIPOS>ATOM
1      C1     -0.0187    1.5258    0.0104 C.3      1 ZINC000981700465   -0.1500
2      C2      0.0021   -0.0041    0.0020 C.3      1 ZINC000981700465   -0.1100
3      C3      0.7421   -0.5109    1.2415 C.3      1 ZINC000981700465   -0.0500
4      C4      0.7625   -2.0177    1.2333 C.2      1 ZINC000981700465    0.1400
5      N5     -0.1389   -2.7995    1.7605 N.2      1 ZINC000981700465   -0.2900
6      N6      0.2345   -4.1309    1.5461 N.pl3    1 ZINC000981700465   -0.4600
7      C7      1.3944   -4.1443    0.8701 C.2      1 ZINC000981700465    0.1000
8      C8      1.7582   -2.8314    0.6477 C.2      1 ZINC000981700465   -0.2900
9      C9      2.9650   -2.3653   -0.0594 C.2      1 ZINC000981700465    0.5900
10     O10     3.1715   -1.1741   -0.1896 O.2      1 ZINC000981700465   -0.5300
11     N11     3.8394   -3.2597   -0.5615 N.am     1 ZINC000981700465   -0.7300
12     C12     5.0386   -2.7966   -1.2641 C.3      1 ZINC000981700465    0.1300
13     C13     5.8550   -4.0039   -1.7298 C.3      1 ZINC000981700465   -0.1100
14     H14     6.0706   -4.6643   -0.8899 H        1 ZINC000981700465    0.0900
15     C15     5.1003   -4.7717   -2.8434 C.3      1 ZINC000981700465   -0.1200
16     C16     6.2426   -5.5119   -3.5825 C.3      1 ZINC000981700465   -0.1300
17     C17     7.4085   -4.5018   -3.5852 C.3      1 ZINC000981700465    0.1400
18     H18     8.3555   -5.0242   -3.4496 H        1 ZINC000981700465    0.1000
19     N19     7.4233   -3.7559   -4.8460 N.am     1 ZINC000981700465   -0.7100
20     C20     8.0700   -4.2563   -5.9174 C.2      1 ZINC000981700465    0.5600
21     O21     8.6408   -5.3261   -5.8376 O.2      1 ZINC000981700465   -0.5200
22     C22     8.0850   -3.5021   -7.1923 C.ar     1 ZINC000981700465   -0.1400
23     C23     8.7446   -4.0023   -8.3223 C.ar     1 ZINC000981700465   -0.0600
24     C24     8.7145   -3.2400   -9.4788 C.ar     1 ZINC000981700465    0.0400
25     N25     8.0787   -2.0846   -9.4899 N.ar     1 ZINC000981700465   -0.2200
26     N26     7.4728   -1.6209   -8.4587 N.ar     1 ZINC000981700465   -0.2400
27     C27     7.4366   -2.2696   -7.3109 C.ar     1 ZINC000981700465    0.0700
28     C28     7.1638   -3.5430   -2.4041 C.3      1 ZINC000981700465   -0.1200
29     H29     1.0039    1.9031    0.0027 H        1 ZINC000981700465    0.0600
30     H30    -0.5459    1.8868   -0.8726 H        1 ZINC000981700465    0.0600
31     H31    -0.5289    1.8773    0.9072 H        1 ZINC000981700465    0.0500
32     H32    -1.0205   -0.3814    0.0098 H        1 ZINC000981700465    0.0600
33     H33     0.5123   -0.3556   -0.8948 H        1 ZINC000981700465    0.0600
34     H34     1.7647   -0.1336    1.2338 H        1 ZINC000981700465    0.1000
35     H35     0.2319   -0.1594    2.1383 H        1 ZINC000981700465    0.0800
36     H36    -0.2611   -4.9124    1.8368 H        1 ZINC000981700465    0.4500
37     H37     1.9402   -5.0211    0.5544 H        1 ZINC000981700465    0.1800
38     H38     3.6747   -4.2099   -0.4576 H        1 ZINC000981700465    0.4000
39     H39     4.7459   -2.2006   -2.1285 H        1 ZINC000981700465    0.0700
40     H40     5.6420   -2.1879   -0.5907 H        1 ZINC000981700465    0.0700
41     H41     4.3948   -5.4821   -2.4126 H        1 ZINC000981700465    0.0700
42     H42     4.5918   -4.0788   -3.5137 H        1 ZINC000981700465    0.0700
43     H43     6.5228   -6.4165   -3.0428 H        1 ZINC000981700465    0.0800
44     H44     5.9438   -5.7524   -4.6028 H        1 ZINC000981700465    0.0700
45     H45     6.9677   -2.9020   -4.9098 H        1 ZINC000981700465    0.4000
46     H46     9.2601   -4.9509   -8.2928 H        1 ZINC000981700465    0.1700
47     H47     9.2116   -3.5917  -10.3708 H        1 ZINC000981700465    0.1800
48     H48     6.9157   -1.8468   -6.4646 H        1 ZINC000981700465    0.1700
49     H49     7.0544   -2.5217   -2.7687 H        1 ZINC000981700465    0.0800
50     H50     7.9922   -3.6012   -1.6981 H        1 ZINC000981700465    0.0800
@<TRIPOS>BOND
1     1     2     1
2     1     29    1
3     1     30    1
4     1     31    1
5     2     3     1
6     2     32    1
7     2     33    1
8     3     4     1
9     3     34    1
10    3     35    1
11    4     8     1
12    4     5     2
13    5     6     1
14    6     7     1
15    6     36    1
16    7     8     2
17    7     37    1
18    8     9     1
19    9     10    2
20    9     11    am
21    11    12    1
22    11    38    1
23    12    13    1
24    12    39    1
25    12    40    1
26    13    14    1
27    13    28    1
28    13    15    1
29    15    16    1
30    15    41    1
31    15    42    1
32    16    17    1
33    16    43    1
34    16    44    1
35    17    18    1
36    17    19    1
37    17    28    1
38    19    20    am
39    19    45    1
40    20    21    2
41    20    22    1
42    22    27    ar
43    22    23    ar
44    23    24    ar
45    23    46    1
46    24    25    ar
47    24    47    1
48    25    26    ar
49    26    27    ar
50    27    48    1
51    28    49    1
52    28    50    1
@<TRIPOS>SUBSTRUCTURE
1   ZINC000981700465 1     RESIDUE    1   A     ZIN   1
@<TRIPOS>MOLECULE
ZINC000642096826
56	57	1	0	0
SMALL
USER_CHARGES
@<TRIPOS>ATOM
1      C1     -0.0187    1.5258    0.0104 C.3      1 ZINC000642096826   -0.1500
2      C2      0.0021   -0.0041    0.0020 C.3      1 ZINC000642096826   -0.1400
3      C3      0.7182   -0.4975   -1.2568 C.3      1 ZINC000642096826    0.1200
4      N4      0.7381   -1.9623   -1.2648 N.am     1 ZINC000642096826   -0.6200
5      C5     -0.3566   -2.7063   -1.8928 C.3      1 ZINC000642096826    0.1100
6      C6     -0.0285   -2.9488   -3.3674 C.3      1 ZINC000642096826   -0.1400
7      C7     -1.1718   -3.7257   -4.0232 C.3      1 ZINC000642096826   -0.1500
8      C8      1.7635   -2.6255   -0.6946 C.2      1 ZINC000642096826    0.5200
9      O9      2.6697   -2.0096   -0.1747 O.2      1 ZINC000642096826   -0.5200
10     C10     1.7839   -4.1324   -0.7028 C.3      1 ZINC000642096826    0.0400
11     N11     2.9964   -4.6094   -0.0245 N.3      1 ZINC000642096826   -0.5200
12     C12     2.9692   -4.2681    1.4041 C.3      1 ZINC000642096826    0.0100
13     C13     3.1733   -6.0549   -0.2171 C.3      1 ZINC000642096826    0.0900
14     C14     4.5376   -6.4640    0.2753 C.ar     1 ZINC000642096826   -0.0500
15     C15     5.6167   -6.4444   -0.5904 C.ar     1 ZINC000642096826   -0.1000
16     C16     6.8682   -6.8182   -0.1462 C.ar     1 ZINC000642096826   -0.0600
17     C17     7.0444   -7.2163    1.1800 C.ar     1 ZINC000642096826   -0.1400
18     C18     8.3828   -7.6177    1.6630 C.2      1 ZINC000642096826    0.5600
19     O19     9.3327   -7.6015    0.9048 O.2      1 ZINC000642096826   -0.5300
20     N20     8.5497   -8.0016    2.9441 N.am     1 ZINC000642096826   -0.7000
21     C21     9.8760   -8.3993    3.4228 C.3      1 ZINC000642096826    0.0800
22     C22    10.3209   -7.8737    4.7891 C.3      1 ZINC000642096826   -0.1900
23     C23     9.9392   -9.3460    4.6231 C.3      1 ZINC000642096826   -0.1900
24     C24     5.9517   -7.2334    2.0482 C.ar     1 ZINC000642096826   -0.0900
25     C25     4.7066   -6.8522    1.5925 C.ar     1 ZINC000642096826   -0.1200
26     H26     1.0039    1.9031    0.0027 H        1 ZINC000642096826    0.0600
27     H27    -0.5459    1.8868   -0.8726 H        1 ZINC000642096826    0.0600
28     H28    -0.5289    1.8773    0.9072 H        1 ZINC000642096826    0.0600
29     H29     0.5293   -0.3651    0.8851 H        1 ZINC000642096826    0.0600
30     H30    -1.0205   -0.3814    0.0098 H        1 ZINC000642096826    0.0600
31     H31     0.1910   -0.1364   -2.1398 H        1 ZINC000642096826    0.0800
32     H32     1.7408   -0.1202   -1.2645 H        1 ZINC000642096826    0.0800
33     H33    -0.4829   -3.6633   -1.3865 H        1 ZINC000642096826    0.0800
34     H34    -1.2787   -2.1301   -1.8157 H        1 ZINC000642096826    0.0800
35     H35     0.0977   -1.9918   -3.8736 H        1 ZINC000642096826    0.0700
36     H36     0.8935   -3.5250   -3.4445 H        1 ZINC000642096826    0.0700
37     H37    -0.9380   -3.8985   -5.0737 H        1 ZINC000642096826    0.0600
38     H38    -1.2980   -4.6828   -3.5169 H        1 ZINC000642096826    0.0600
39     H39    -2.0938   -3.1495   -3.9461 H        1 ZINC000642096826    0.0600
40     H40     0.9039   -4.5105   -0.1826 H        1 ZINC000642096826    0.0600
41     H41     1.7790   -4.4901   -1.7324 H        1 ZINC000642096826    0.1000
42     H42     2.1013   -4.7325    1.8721 H        1 ZINC000642096826    0.0200
43     H43     3.8784   -4.6327    1.8821 H        1 ZINC000642096826    0.0700
44     H44     2.9079   -3.1858    1.5180 H        1 ZINC000642096826    0.0900
45     H45     2.4085   -6.5924    0.3434 H        1 ZINC000642096826    0.0500
46     H46     3.0827   -6.2940   -1.2767 H        1 ZINC000642096826    0.0900
47     H47     5.4790   -6.1362   -1.6163 H        1 ZINC000642096826    0.1300
48     H48     7.7096   -6.8032   -0.8231 H        1 ZINC000642096826    0.1400
49     H49     7.7917   -8.0145    3.5492 H        1 ZINC000642096826    0.4000
50     H50    10.6396   -8.5109    2.6531 H        1 ZINC000642096826    0.1400
51     H51    11.3774   -7.6391    4.9184 H        1 ZINC000642096826    0.1000
52     H52     9.6268   -7.2319    5.3318 H        1 ZINC000642096826    0.1000
53     H53     8.9940   -9.6728    5.0567 H        1 ZINC000642096826    0.1000
54     H54    10.7447  -10.0801    4.6433 H        1 ZINC000642096826    0.1100
55     H55     6.0814   -7.5407    3.0754 H        1 ZINC000642096826    0.1200
56     H56     3.8603   -6.8646    2.2634 H        1 ZINC000642096826    0.1300
@<TRIPOS>BOND
1     1     2     1
2     1     26    1
3     1     27    1
4     1     28    1
5     2     3     1
6     2     29    1
7     2     30    1
8     3     4     1
9     3     31    1
10    3     32    1
11    4     5     1
12    4     8     am
13    5     6     1
14    5     33    1
15    5     34    1
16    6     7     1
17    6     35    1
18    6     36    1
19    7     37    1
20    7     38    1
21    7     39    1
22    8     9     2
23    8     10    1
24    10    11    1
25    10    40    1
26    10    41    1
27    11    12    1
28    11    13    1
29    12    42    1
30    12    43    1
31    12    44    1
32    13    14    1
33    13    45    1
34    13    46    1
35    14    25    ar
36    14    15    ar
37    15    16    ar
38    15    47    1
39    16    17    ar
40    16    48    1
41    17    18    1
42    17    24    ar
43    18    19    2
44    18    20    am
45    20    21    1
46    20    49    1
47    21    23    1
48    21    22    1
49    21    50    1
50    22    23    1
51    22    51    1
52    22    52    1
53    23    53    1
54    23    54    1
55    24    25    ar
56    24    55    1
57    25    56    1
@<TRIPOS>SUBSTRUCTURE
1   ZINC000642096826 1     RESIDUE    1   A     ZIN   1
@<TRIPOS>MOLECULE
ZINC000375302598
55	58	1	0	0
SMALL
USER_CHARGES
@<TRIPOS>ATOM
1      C1     -0.0187    1.5258    0.0104 C.3      1 ZINC000375302598   -0.1500
2      C2      0.0021   -0.0041    0.0020 C.3      1 ZINC000375302598   -0.0300
3      C3      0.7309   -0.5033    1.2229 C.2      1 ZINC000375302598    0.1800
4      N4      0.2007   -0.7822    2.3893 N.2      1 ZINC000375302598   -0.4700
5      C5      1.2225   -1.1891    3.1635 C.2      1 ZINC000375302598    0.1800
6      C6      1.1321   -1.6249    4.6033 C.3      1 ZINC000375302598    0.1500
7      N7      0.8921   -3.0730    4.6624 N.3      1 ZINC000375302598   -0.5300
8      C8      2.0430   -3.8190    4.1377 C.3      1 ZINC000375302598    0.0500
9      C9      1.7024   -5.3098    4.0792 C.3      1 ZINC000375302598   -0.1100
10     C10     1.3486   -5.8031    5.4849 C.3      1 ZINC000375302598   -0.1300
11     C11     0.1786   -4.9777    6.0275 C.3      1 ZINC000375302598    0.1500
12     H12    -0.6959   -5.1257    5.3939 H        1 ZINC000375302598    0.1000
13     N13    -0.1296   -5.4057    7.3942 N.am     1 ZINC000375302598   -0.7300
14     C14    -0.9445   -6.4587    7.6031 C.2      1 ZINC000375302598    0.5200
15     O15    -1.4227   -7.0519    6.6595 O.2      1 ZINC000375302598   -0.5300
16     C16    -1.2616   -6.8989    9.0090 C.3      1 ZINC000375302598   -0.1100
17     C17    -2.2008   -8.1059    8.9659 C.3      1 ZINC000375302598   -0.1200
18     H18    -2.1029   -8.7467    8.0896 H        1 ZINC000375302598    0.1200
19     C19    -3.5989   -7.9347    9.5633 C.3      1 ZINC000375302598   -0.1700
20     C20    -2.5510   -8.7764   10.2958 C.3      1 ZINC000375302598   -0.1100
21     H21    -2.1125   -8.3575   11.2016 H        1 ZINC000375302598    0.1100
22     C22    -2.7349  -10.2721   10.2945 C.ar     1 ZINC000375302598   -0.0500
23     C23    -3.7083  -10.8481    9.4996 C.ar     1 ZINC000375302598   -0.1200
24     C24    -3.8770  -12.2201    9.4984 C.ar     1 ZINC000375302598   -0.1200
25     C25    -3.0721  -13.0162   10.2916 C.ar     1 ZINC000375302598   -0.1300
26     C26    -2.0982  -12.4403   11.0858 C.ar     1 ZINC000375302598   -0.1200
27     C27    -1.9266  -11.0686   11.0838 C.ar     1 ZINC000375302598   -0.1100
28     C28     0.5633   -3.4965    6.0295 C.3      1 ZINC000375302598    0.0500
29     N29     2.3019   -1.1378    2.4418 N.2      1 ZINC000375302598   -0.3800
30     O30     2.0403   -0.7518    1.3220 O.3      1 ZINC000375302598    0.0800
31     H31     1.0039    1.9031    0.0027 H        1 ZINC000375302598    0.0600
32     H32    -0.5459    1.8868   -0.8726 H        1 ZINC000375302598    0.0800
33     H33    -0.5289    1.8773    0.9072 H        1 ZINC000375302598    0.0600
34     H34    -1.0205   -0.3814    0.0098 H        1 ZINC000375302598    0.1100
35     H35     0.5123   -0.3556   -0.8948 H        1 ZINC000375302598    0.1000
36     H36     2.0664   -1.3903    5.1133 H        1 ZINC000375302598    0.0700
37     H37     0.3104   -1.1002    5.0908 H        1 ZINC000375302598    0.1100
38     H38     2.2815   -3.4613    3.1360 H        1 ZINC000375302598    0.0800
39     H39     2.9021   -3.6681    4.7912 H        1 ZINC000375302598    0.0400
40     H40     0.8519   -5.4630    3.4149 H        1 ZINC000375302598    0.0700
41     H41     2.5623   -5.8651    3.7043 H        1 ZINC000375302598    0.0700
42     H42     1.0634   -6.8543    5.4410 H        1 ZINC000375302598    0.0700
43     H43     2.2118   -5.6860    6.1400 H        1 ZINC000375302598    0.0600
44     H44     0.2529   -4.9313    8.1489 H        1 ZINC000375302598    0.4000
45     H45    -0.3391   -7.1744    9.5202 H        1 ZINC000375302598    0.1000
46     H46    -1.7442   -6.0820    9.5455 H        1 ZINC000375302598    0.1000
47     H47    -3.8496   -6.9623    9.9870 H        1 ZINC000375302598    0.1000
48     H48    -4.4208   -8.4633    9.0803 H        1 ZINC000375302598    0.1000
49     H49    -4.3371  -10.2261    8.8798 H        1 ZINC000375302598    0.1200
50     H50    -4.6379  -12.6700    8.8779 H        1 ZINC000375302598    0.1200
51     H51    -3.2044  -14.0881   10.2912 H        1 ZINC000375302598    0.1200
52     H52    -1.4696  -13.0622   11.7058 H        1 ZINC000375302598    0.1200
53     H53    -1.1657  -10.6187   11.7043 H        1 ZINC000375302598    0.1200
54     H54     1.4294   -3.3471    6.6742 H        1 ZINC000375302598    0.0400
55     H55    -0.2728   -2.9046    6.4019 H        1 ZINC000375302598    0.0900
@<TRIPOS>BOND
1     1     2     1
2     1     31    1
3     1     32    1
4     1     33    1
5     2     3     1
6     2     34    1
7     2     35    1
8     3     30    1
9     3     4     2
10    4     5     1
11    5     6     1
12    5     29    2
13    6     7     1
14    6     36    1
15    6     37    1
16    7     28    1
17    7     8     1
18    8     9     1
19    8     38    1
20    8     39    1
21    9     10    1
22    9     40    1
23    9     41    1
24    10    11    1
25    10    42    1
26    10    43    1
27    11    12    1
28    11    13    1
29    11    28    1
30    13    14    am
31    13    44    1
32    14    15    2
33    14    16    1
34    16    17    1
35    16    45    1
36    16    46    1
37    17    18    1
38    17    20    1
39    17    19    1
40    19    20    1
41    19    47    1
42    19    48    1
43    20    21    1
44    20    22    1
45    22    27    ar
46    22    23    ar
47    23    24    ar
48    23    49    1
49    24    25    ar
50    24    50    1
51    25    26    ar
52    25    51    1
53    26    27    ar
54    26    52    1
55    27    53    1
56    28    54    1
57    28    55    1
58    29    30    1
@<TRIPOS>SUBSTRUCTURE
1   ZINC000375302598 1     RESIDUE    1   A     ZIN   1
@<TRIPOS>MOLECULE
ZINC000560467340
44	46	1	0	0
SMALL
USER_CHARGES
@<TRIPOS>ATOM
1      O1      2.1505    4.8093   -0.2469 O.2      1 ZINC000560467340   -0.9600
2      S2      0.8804    4.2178   -0.0096 S.o2     1 ZINC000560467340    2.7100
3      O3     -0.1178    4.8198    0.8030 O.2      1 ZINC000560467340   -0.9500
4      N4      0.1913    3.9778   -1.4962 N.am     1 ZINC000560467340   -1.0900
5      C5     -1.1264    3.3460   -1.5994 C.3      1 ZINC000560467340    0.1400
6      C6     -1.6927    3.5735   -3.0024 C.3      1 ZINC000560467340   -0.0500
7      C7     -3.0499    2.8805   -3.1381 C.3      1 ZINC000560467340   -0.0700
8      C8     -2.8985    1.4139   -2.8259 C.ar     1 ZINC000560467340   -0.0900
9      C9     -2.6691    0.5105   -3.8468 C.ar     1 ZINC000560467340   -0.0900
10     C10    -2.5301   -0.8346   -3.5617 C.ar     1 ZINC000560467340   -0.1500
11     C11    -2.6203   -1.2772   -2.2528 C.ar     1 ZINC000560467340    0.1000
12     F12    -2.4841   -2.5918   -1.9729 F        1 ZINC000560467340   -0.1400
13     C13    -2.8496   -0.3714   -1.2311 C.ar     1 ZINC000560467340   -0.1500
14     C14    -2.9835    0.9739   -1.5181 C.ar     1 ZINC000560467340   -0.0900
15     C15    -0.7124    3.0302   -4.0624 C.3      1 ZINC000560467340   -0.1300
16     C16    -0.8103    4.0469   -5.2268 C.3      1 ZINC000560467340   -0.1200
17     C17    -0.9461    5.4012   -4.4876 C.3      1 ZINC000560467340   -0.1600
18     C18    -1.8412    5.0810   -3.2727 C.3      1 ZINC000560467340    0.1100
19     H19    -2.8801    5.3187   -3.5015 H        1 ZINC000560467340    0.0600
20     O20    -1.4076    5.8285   -2.1346 O.3      1 ZINC000560467340   -0.5500
21     C21     1.1936    2.6281    0.6828 C.2      1 ZINC000560467340   -0.6900
22     C22     0.2985    1.9830    1.4324 C.2      1 ZINC000560467340   -0.1000
23     S23     0.9614    0.4357    1.9422 S.3      1 ZINC000560467340    0.1500
24     C24     2.4613    0.7615    1.0832 C.2      1 ZINC000560467340   -0.2200
25     C25     2.3849    1.9514    0.4853 C.2      1 ZINC000560467340   -0.0700
26     H26     0.6601    4.2556   -2.2986 H        1 ZINC000560467340    0.4200
27     H27    -1.0317    2.2759   -1.4149 H        1 ZINC000560467340    0.0600
28     H28    -1.7981    3.7839   -0.8610 H        1 ZINC000560467340    0.0800
29     H29    -3.7582    3.3290   -2.4415 H        1 ZINC000560467340    0.0800
30     H30    -3.4180    2.9988   -4.1572 H        1 ZINC000560467340    0.0800
31     H31    -2.5988    0.8560   -4.8676 H        1 ZINC000560467340    0.1300
32     H32    -2.3516   -1.5403   -4.3595 H        1 ZINC000560467340    0.1400
33     H33    -2.9205   -0.7155   -0.2098 H        1 ZINC000560467340    0.1400
34     H34    -3.1621    1.6807   -0.7212 H        1 ZINC000560467340    0.1300
35     H35     0.3022    3.0021   -3.6649 H        1 ZINC000560467340    0.0700
36     H36    -1.0206    2.0389   -4.3946 H        1 ZINC000560467340    0.0800
37     H37     0.0947    4.0272   -5.8340 H        1 ZINC000560467340    0.0700
38     H38    -1.6911    3.8505   -5.8381 H        1 ZINC000560467340    0.0700
39     H39     0.0307    5.7559   -4.1588 H        1 ZINC000560467340    0.0800
40     H40    -1.4249    6.1402   -5.1301 H        1 ZINC000560467340    0.0700
41     H41    -1.4576    6.7871   -2.2513 H        1 ZINC000560467340    0.3800
42     H42    -0.6831    2.3542    1.6876 H        1 ZINC000560467340    0.1800
43     H43     3.3121    0.0976    1.0423 H        1 ZINC000560467340    0.1700
44     H44     3.1943    2.3595   -0.1019 H        1 ZINC000560467340    0.1500
@<TRIPOS>BOND
1     1     2     2
2     2     3     2
3     2     4     am
4     2     21    1
5     4     5     1
6     4     26    1
7     5     6     1
8     5     27    1
9     5     28    1
10    6     18    1
11    6     7     1
12    6     15    1
13    7     8     1
14    7     29    1
15    7     30    1
16    8     14    ar
17    8     9     ar
18    9     10    ar
19    9     31    1
20    10    11    ar
21    10    32    1
22    11    12    1
23    11    13    ar
24    13    14    ar
25    13    33    1
26    14    34    1
27    15    16    1
28    15    35    1
29    15    36    1
30    16    17    1
31    16    37    1
32    16    38    1
33    17    18    1
34    17    39    1
35    17    40    1
36    18    19    1
37    18    20    1
38    20    41    1
39    21    25    1
40    21    22    2
41    22    23    1
42    22    42    1
43    23    24    1
44    24    25    2
45    24    43    1
46    25    44    1
@<TRIPOS>SUBSTRUCTURE
1   ZINC000560467340 1     RESIDUE    1   A     ZIN   1
@<TRIPOS>MOLECULE
ZINC000951315041
45	47	1	0	0
SMALL
USER_CHARGES
@<TRIPOS>ATOM
1      C1     -6.3019   -1.0673    2.4751 C.3      1 ZINC000951315041    0.0500
2      N2     -5.5815   -1.2290    1.2098 N.am     1 ZINC000951315041   -0.4900
3      C3     -4.4150   -1.9004    1.1929 C.2      1 ZINC000951315041    0.1700
4      C4     -3.7193   -2.0644    0.0125 C.2      1 ZINC000951315041   -0.2400
5      C5     -2.4418   -2.8007   -0.0009 C.2      1 ZINC000951315041    0.5800
6      O6     -1.3918   -2.1949   -0.0975 O.2      1 ZINC000951315041   -0.5200
7      N7     -2.4378   -4.1451    0.0939 N.am     1 ZINC000951315041   -0.6000
8      C8     -1.1726   -4.8842    0.2018 C.3      1 ZINC000951315041    0.1100
9      C9     -1.1327   -5.9558   -0.8922 C.3      1 ZINC000951315041   -0.1300
10     C10    -2.3833   -6.8319   -0.7883 C.3      1 ZINC000951315041   -0.1300
11     C11    -3.6305   -5.9708   -1.0009 C.3      1 ZINC000951315041    0.1300
12     H12    -3.5791   -5.4910   -1.9782 H        1 ZINC000951315041    0.1000
13     N13    -4.8253   -6.8158   -0.9333 N.am     1 ZINC000951315041   -0.7200
14     C14    -5.9557   -6.4360   -1.5614 C.2      1 ZINC000951315041    0.5700
15     O15    -5.9837   -5.3924   -2.1840 O.2      1 ZINC000951315041   -0.5200
16     C16    -7.1615   -7.2887   -1.4932 C.ar     1 ZINC000951315041   -0.1900
17     C17    -8.3400   -6.9085   -2.1460 C.ar     1 ZINC000951315041   -0.0100
18     C18    -9.4405   -7.7423   -2.0514 C.ar     1 ZINC000951315041   -0.1800
19     C19    -9.3419   -8.9133   -1.3221 C.ar     1 ZINC000951315041    0.1300
20     N20    -8.2177   -9.2461   -0.7166 N.ar     1 ZINC000951315041   -0.4900
21     C21    -7.1423   -8.4892   -0.7818 C.ar     1 ZINC000951315041    0.1400
22     C22    -3.6989   -4.8990    0.0976 C.3      1 ZINC000951315041    0.1000
23     C23    -4.2419   -1.5205   -1.1859 C.2      1 ZINC000951315041    0.0100
24     C24    -5.4222   -0.8466   -1.1444 C.2      1 ZINC000951315041   -0.2300
25     C25    -6.0989   -0.7088    0.0821 C.2      1 ZINC000951315041    0.5100
26     O26    -7.1581   -0.1056    0.1244 O.2      1 ZINC000951315041   -0.5400
27     H27    -7.2204   -0.5067    2.3011 H        1 ZINC000951315041    0.1100
28     H28    -6.5468   -2.0486    2.8817 H        1 ZINC000951315041    0.0800
29     H29    -5.6748   -0.5265    3.1837 H        1 ZINC000951315041    0.0800
30     H30    -4.0207   -2.3133    2.1096 H        1 ZINC000951315041    0.1700
31     H31    -0.3361   -4.1977    0.0715 H        1 ZINC000951315041    0.1000
32     H32    -1.1091   -5.3590    1.1809 H        1 ZINC000951315041    0.0700
33     H33    -1.1048   -5.4761   -1.8705 H        1 ZINC000951315041    0.0700
34     H34    -0.2440   -6.5737   -0.7640 H        1 ZINC000951315041    0.0900
35     H35    -2.3454   -7.6105   -1.5502 H        1 ZINC000951315041    0.0800
36     H36    -2.4235   -7.2919    0.1991 H        1 ZINC000951315041    0.0700
37     H37    -4.8030   -7.6486   -0.4365 H        1 ZINC000951315041    0.4000
38     H38    -8.3892   -5.9879   -2.7087 H        1 ZINC000951315041    0.1500
39     H39   -10.3667   -7.4811   -2.5417 H        1 ZINC000951315041    0.1500
40     H40   -10.1992   -9.5658   -1.2466 H        1 ZINC000951315041    0.1600
41     H41    -6.2403   -8.7956   -0.2728 H        1 ZINC000951315041    0.1600
42     H42    -3.8421   -5.3773    1.0665 H        1 ZINC000951315041    0.0700
43     H43    -4.5287   -4.2216   -0.1040 H        1 ZINC000951315041    0.0900
44     H44    -3.7108   -1.6388   -2.1188 H        1 ZINC000951315041    0.1400
45     H45    -5.8389   -0.4232   -2.0464 H        1 ZINC000951315041    0.1600
@<TRIPOS>BOND
1     1     2     1
2     1     27    1
3     1     28    1
4     1     29    1
5     2     25    am
6     2     3     1
7     3     4     2
8     3     30    1
9     4     5     1
10    4     23    1
11    5     6     2
12    5     7     am
13    7     22    1
14    7     8     1
15    8     9     1
16    8     31    1
17    8     32    1
18    9     10    1
19    9     33    1
20    9     34    1
21    10    11    1
22    10    35    1
23    10    36    1
24    11    12    1
25    11    13    1
26    11    22    1
27    13    14    am
28    13    37    1
29    14    15    2
30    14    16    1
31    16    21    ar
32    16    17    ar
33    17    18    ar
34    17    38    1
35    18    19    ar
36    18    39    1
37    19    20    ar
38    19    40    1
39    20    21    ar
40    21    41    1
41    22    42    1
42    22    43    1
43    23    24    2
44    23    44    1
45    24    25    1
46    24    45    1
47    25    26    2
@<TRIPOS>SUBSTRUCTURE
1   ZINC000951315041 1     RESIDUE    1   A     ZIN   1
@<TRIPOS>MOLECULE
ZINC000279593480
48	49	1	0	0
SMALL
USER_CHARGES
@<TRIPOS>ATOM
1      C1     -0.0187    1.5258    0.0104 C.3      1 ZINC000279593480   -0.1400
2      C2      0.0021   -0.0041    0.0020 C.3      1 ZINC000279593480   -0.1400
3      C3      0.7421   -0.5109    1.2415 C.3      1 ZINC000279593480    0.1700
4      H4      1.7350   -0.0630    1.2804 H        1 ZINC000279593480    0.0900
5      C5      0.8719   -2.0337    1.1708 C.3      1 ZINC000279593480   -0.0900
6      C6      1.7061   -2.5210    2.3275 C.ar     1 ZINC000279593480   -0.0800
7      C7      3.0783   -2.6238    2.1947 C.ar     1 ZINC000279593480   -0.1000
8      C8      3.8439   -3.0706    3.2552 C.ar     1 ZINC000279593480   -0.1100
9      C9      3.2367   -3.4150    4.4497 C.ar     1 ZINC000279593480   -0.0400
10     Cl10    4.1977   -3.9758    5.7823 Cl       1 ZINC000279593480   -0.0700
11     C11     1.8634   -3.3119    4.5819 C.ar     1 ZINC000279593480   -0.1100
12     C12     1.0994   -2.8596    3.5226 C.ar     1 ZINC000279593480   -0.1000
13     N13    -0.0083   -0.1401    2.4439 N.am     1 ZINC000279593480   -0.7400
14     C14     0.1641    1.0766    2.9974 C.2      1 ZINC000279593480    0.7100
15     O15     0.9425    1.8665    2.4987 O.2      1 ZINC000279593480   -0.5800
16     N16    -0.5262    1.4178    4.1035 N.am     1 ZINC000279593480   -0.7500
17     C17    -0.3387    2.7403    4.7051 C.3      1 ZINC000279593480    0.1200
18     C18    -1.2332    2.8705    5.9396 C.3      1 ZINC000279593480    0.0900
19     O19    -2.6018    2.6546    5.5897 O.3      1 ZINC000279593480   -0.5400
20     C20    -0.7888    1.8780    7.0372 C.3      1 ZINC000279593480   -0.1900
21     C21    -0.3939    2.7837    8.2247 C.3      1 ZINC000279593480    0.0500
22     O22    -1.1287    4.0092    8.0144 O.3      1 ZINC000279593480   -0.3600
23     C23    -1.0542    4.2585    6.5937 C.3      1 ZINC000279593480    0.0900
24     H24    -0.0829    4.6786    6.3326 H        1 ZINC000279593480    0.0800
25     C25    -2.1764    5.2034    6.1592 C.3      1 ZINC000279593480   -0.1400
26     H26     1.0039    1.9031    0.0027 H        1 ZINC000279593480    0.0600
27     H27    -0.5459    1.8868   -0.8726 H        1 ZINC000279593480    0.0400
28     H28    -0.5289    1.8773    0.9072 H        1 ZINC000279593480    0.0600
29     H29    -1.0205   -0.3814    0.0098 H        1 ZINC000279593480    0.0600
30     H30     0.5123   -0.3556   -0.8948 H        1 ZINC000279593480    0.0700
31     H31    -0.1187   -2.4856    1.2215 H        1 ZINC000279593480    0.0800
32     H32     1.3517   -2.3143    0.2332 H        1 ZINC000279593480    0.0900
33     H33     3.5521   -2.3552    1.2621 H        1 ZINC000279593480    0.1300
34     H34     4.9159   -3.1512    3.1513 H        1 ZINC000279593480    0.1300
35     H35     1.3888   -3.5809    5.5140 H        1 ZINC000279593480    0.1300
36     H36     0.0274   -2.7787    3.6258 H        1 ZINC000279593480    0.1300
37     H37    -0.6292   -0.7703    2.8417 H        1 ZINC000279593480    0.3900
38     H38    -1.1471    0.7876    4.5013 H        1 ZINC000279593480    0.3900
39     H39     0.7042    2.8619    4.9976 H        1 ZINC000279593480    0.0800
40     H40    -0.6050    3.5101    3.9807 H        1 ZINC000279593480    0.0800
41     H41    -2.7762    1.7863    5.2015 H        1 ZINC000279593480    0.3700
42     H42    -1.6134    1.2217    7.3152 H        1 ZINC000279593480    0.0900
43     H43     0.0681    1.2946    6.7004 H        1 ZINC000279593480    0.0900
44     H44    -0.6873    2.3225    9.1677 H        1 ZINC000279593480    0.1000
45     H45     0.6786    2.9777    8.2137 H        1 ZINC000279593480    0.0600
46     H46    -2.0659    6.1588    6.6721 H        1 ZINC000279593480    0.0600
47     H47    -2.1221    5.3608    5.0820 H        1 ZINC000279593480    0.0700
48     H48    -3.1407    4.7637    6.4140 H        1 ZINC000279593480    0.0700
@<TRIPOS>BOND
1     1     2     1
2     1     26    1
3     1     27    1
4     1     28    1
5     2     3     1
6     2     29    1
7     2     30    1
8     3     4     1
9     3     5     1
10    3     13    1
11    5     6     1
12    5     31    1
13    5     32    1
14    6     12    ar
15    6     7     ar
16    7     8     ar
17    7     33    1
18    8     9     ar
19    8     34    1
20    9     10    1
21    9     11    ar
22    11    12    ar
23    11    35    1
24    12    36    1
25    13    14    am
26    13    37    1
27    14    15    2
28    14    16    am
29    16    17    1
30    16    38    1
31    17    18    1
32    17    39    1
33    17    40    1
34    18    23    1
35    18    19    1
36    18    20    1
37    19    41    1
38    20    21    1
39    20    42    1
40    20    43    1
41    21    22    1
42    21    44    1
43    21    45    1
44    22    23    1
45    23    24    1
46    23    25    1
47    25    46    1
48    25    47    1
49    25    48    1
@<TRIPOS>SUBSTRUCTURE
1   ZINC000279593480 1     RESIDUE    1   A     ZIN   1
@<TRIPOS>MOLECULE
ZINC001574157642
53	55	1	0	0
SMALL
USER_CHARGES
@<TRIPOS>ATOM
1      C1     -0.0187    1.5258    0.0104 C.3      1 ZINC001574157642   -0.1400
2      C2      0.0021   -0.0041    0.0020 C.3      1 ZINC001574157642   -0.0900
3      C3      0.7182   -0.4975   -1.2568 C.3      1 ZINC001574157642   -0.1500
4      C4      0.7421   -0.5109    1.2415 C.3      1 ZINC001574157642   -0.1300
5      C5     -0.0416   -0.1236    2.4973 C.3      1 ZINC001574157642    0.1300
6      H6     -0.2110    0.9531    2.5022 H        1 ZINC001574157642    0.1100
7      C7      0.7582   -0.5198    3.7400 C.3      1 ZINC001574157642    0.1100
8      N8     -0.0417   -0.2588    4.9392 N.pl3    1 ZINC001574157642   -0.7100
9      C9      0.4783   -0.5412    6.1962 C.ar     1 ZINC001574157642    0.3700
10     C10     1.7633   -1.0676    6.3163 C.ar     1 ZINC001574157642    0.0000
11     N11     2.2572   -1.3362    7.5086 N.ar     1 ZINC001574157642   -0.3700
12     C12     1.5293   -1.1045    8.5975 C.ar     1 ZINC001574157642    0.0800
13     C13     2.0851   -1.4063    9.9399 C.2      1 ZINC001574157642    0.2300
14     N14     3.2791   -1.8985   10.2054 N.2      1 ZINC001574157642   -0.2700
15     N15     3.3818   -2.0152   11.4847 N.pl3    1 ZINC001574157642   -0.2300
16     N16     2.2913   -1.6129   12.0381 N.2      1 ZINC001574157642   -0.0400
17     N17     1.4731   -1.2261   11.1191 N.2      1 ZINC001574157642   -0.2600
18     C18     0.2453   -0.5780    8.4773 C.ar     1 ZINC001574157642    0.1600
19     N19    -0.2467   -0.3046    7.2827 N.ar     1 ZINC001574157642   -0.5000
20     N20    -1.3301   -0.8207    2.5031 N.am     1 ZINC001574157642   -0.7300
21     C21    -2.3820   -0.2980    1.8422 C.2      1 ZINC001574157642    0.5200
22     O22    -2.2619    0.7494    1.2427 O.2      1 ZINC001574157642   -0.5100
23     C23    -3.7075   -1.0150    1.8482 C.3      1 ZINC001574157642   -0.1300
24     H24    -3.5892   -2.0060    1.4100 H        1 ZINC001574157642    0.1100
25     C25    -4.7305   -0.2120    1.0358 C.3      1 ZINC001574157642   -0.1000
26     C26    -6.0071   -1.0465    0.9053 C.3      1 ZINC001574157642   -0.1400
27     C27    -6.4124   -1.5743    2.2515 C.2      1 ZINC001574157642    0.5200
28     O28    -7.5492   -1.9726    2.3934 O.2      1 ZINC001574157642   -0.5500
29     N29    -5.5892   -1.6290    3.2992 N.am     1 ZINC001574157642   -0.7200
30     C30    -4.2131   -1.1467    3.2854 C.3      1 ZINC001574157642    0.1200
31     H31     1.0039    1.9031    0.0027 H        1 ZINC001574157642    0.0400
32     H32    -0.5459    1.8868   -0.8726 H        1 ZINC001574157642    0.0500
33     H33    -0.5289    1.8773    0.9072 H        1 ZINC001574157642    0.0700
34     H34    -1.0205   -0.3814    0.0098 H        1 ZINC001574157642    0.0700
35     H35     1.7408   -0.1202   -1.2645 H        1 ZINC001574157642    0.0500
36     H36     0.7330   -1.5874   -1.2628 H        1 ZINC001574157642    0.0500
37     H37     0.1910   -0.1364   -2.1398 H        1 ZINC001574157642    0.0500
38     H38     0.8346   -1.5958    1.1912 H        1 ZINC001574157642    0.0700
39     H39     1.7350   -0.0630    1.2804 H        1 ZINC001574157642    0.0800
40     H40     1.0040   -1.5806    3.6909 H        1 ZINC001574157642    0.0800
41     H41     1.6774    0.0646    3.7820 H        1 ZINC001574157642    0.0900
42     H42    -0.9345    0.1113    4.8557 H        1 ZINC001574157642    0.4100
43     H43     2.3544   -1.2557    5.4322 H        1 ZINC001574157642    0.1700
44     H44     4.1588   -2.3536   11.9566 H        1 ZINC001574157642    0.4800
45     H45    -0.3463   -0.3900    9.3611 H        1 ZINC001574157642    0.1800
46     H46    -1.4262   -1.6584    2.9826 H        1 ZINC001574157642    0.4000
47     H47    -4.9543    0.7231    1.5493 H        1 ZINC001574157642    0.0800
48     H48    -4.3277   -0.0001    0.0454 H        1 ZINC001574157642    0.0900
49     H49    -6.8072   -0.4241    0.5045 H        1 ZINC001574157642    0.1100
50     H50    -5.8261   -1.8816    0.2285 H        1 ZINC001574157642    0.1000
51     H51    -5.9260   -2.0161    4.1223 H        1 ZINC001574157642    0.4000
52     H52    -3.5807   -1.8463    3.8320 H        1 ZINC001574157642    0.0800
53     H53    -4.1684   -0.1713    3.7698 H        1 ZINC001574157642    0.0700
@<TRIPOS>BOND
1     1     2     1
2     1     31    1
3     1     32    1
4     1     33    1
5     2     3     1
6     2     4     1
7     2     34    1
8     3     35    1
9     3     36    1
10    3     37    1
11    4     5     1
12    4     38    1
13    4     39    1
14    5     6     1
15    5     7     1
16    5     20    1
17    7     8     1
18    7     40    1
19    7     41    1
20    8     9     1
21    8     42    1
22    9     19    ar
23    9     10    ar
24    10    11    ar
25    10    43    1
26    11    12    ar
27    12    13    1
28    12    18    ar
29    13    17    1
30    13    14    2
31    14    15    1
32    15    16    1
33    15    44    1
34    16    17    2
35    18    19    ar
36    18    45    1
37    20    21    am
38    20    46    1
39    21    22    2
40    21    23    1
41    23    24    1
42    23    30    1
43    23    25    1
44    25    26    1
45    25    47    1
46    25    48    1
47    26    27    1
48    26    49    1
49    26    50    1
50    27    28    2
51    27    29    am
52    29    30    1
53    29    51    1
54    30    52    1
55    30    53    1
@<TRIPOS>SUBSTRUCTURE
1   ZINC001574157642 1     RESIDUE    1   A     ZIN   1
@<TRIPOS>MOLECULE
ZINC000274225049
46	48	1	0	0
SMALL
USER_CHARGES
@<TRIPOS>ATOM
1      C1     -1.0423    0.3279   -1.0656 C.3      1 ZINC000274225049   -0.1600
2      C2      0.0021   -0.0041    0.0020 C.3      1 ZINC000274225049    0.2000
3      H3      0.2967    0.9094    0.5186 H        1 ZINC000274225049    0.1100
4      N4      1.1766   -0.6057   -0.6342 N.am     1 ZINC000274225049   -0.7400
5      C5      2.3884   -0.4934   -0.0551 C.2      1 ZINC000274225049    0.7100
6      O6      2.5068    0.1073    0.9953 O.2      1 ZINC000274225049   -0.5800
7      N7      3.4689   -1.0469   -0.6404 N.am     1 ZINC000274225049   -0.7500
8      C8      4.7861   -0.9248   -0.0110 C.3      1 ZINC000274225049    0.1500
9      C9      5.8312   -1.6358   -0.8731 C.3      1 ZINC000274225049   -0.1000
10     H10     5.7951   -1.2543   -1.8935 H        1 ZINC000274225049    0.1000
11     C11     5.5745   -3.1530   -0.8682 C.3      1 ZINC000274225049   -0.1100
12     C12     6.8131   -3.8658   -1.4467 C.3      1 ZINC000274225049   -0.5900
13     S13     8.2191   -2.7580   -1.0701 S.o2     1 ZINC000274225049    2.3900
14     O14     9.0559   -3.3723   -0.0998 O.2      1 ZINC000274225049   -0.9300
15     O15     8.7785   -2.2775   -2.2848 O.2      1 ZINC000274225049   -0.9300
16     C16     7.2462   -1.4223   -0.2762 C.3      1 ZINC000274225049   -0.5900
17     C17    -0.5847   -0.9751    0.9939 C.ar     1 ZINC000274225049   -0.0700
18     C18    -1.4033   -0.5105    2.0370 C.ar     1 ZINC000274225049   -0.0300
19     C19    -1.6943    0.8568    2.1826 C.ar     1 ZINC000274225049   -0.1100
20     C20    -2.4915    1.2703    3.2050 C.ar     1 ZINC000274225049   -0.1100
21     C21    -3.0257    0.3576    4.1129 C.ar     1 ZINC000274225049   -0.1100
22     C22    -2.7656   -0.9738    4.0032 C.ar     1 ZINC000274225049   -0.1000
23     C23    -1.9466   -1.4386    2.9602 C.ar     1 ZINC000274225049   -0.0400
24     C24    -1.6558   -2.8065    2.8141 C.ar     1 ZINC000274225049   -0.0300
25     Cl25   -2.3103   -3.9623    3.9320 Cl       1 ZINC000274225049   -0.0600
26     C26    -0.8579   -3.2199    1.7900 C.ar     1 ZINC000274225049   -0.1000
27     C27    -0.3286   -2.3074    0.8802 C.ar     1 ZINC000274225049   -0.1000
28     H28    -0.6180    1.0303   -1.7830 H        1 ZINC000274225049    0.0700
29     H29    -1.3369   -0.5856   -1.5822 H        1 ZINC000274225049    0.0700
30     H30    -1.9162    0.7756   -0.5922 H        1 ZINC000274225049    0.0800
31     H31     1.0821   -1.0849   -1.4723 H        1 ZINC000274225049    0.4000
32     H32     3.3744   -1.5261   -1.4785 H        1 ZINC000274225049    0.4000
33     H33     5.0480    0.1292    0.0821 H        1 ZINC000274225049    0.0800
34     H34     4.7597   -1.3814    0.9784 H        1 ZINC000274225049    0.0800
35     H35     5.4003   -3.4919    0.1530 H        1 ZINC000274225049    0.0900
36     H36     4.7020   -3.3790   -1.4812 H        1 ZINC000274225049    0.0900
37     H37     6.9533   -4.8328   -0.9637 H        1 ZINC000274225049    0.1400
38     H38     6.7085   -3.9916   -2.5243 H        1 ZINC000274225049    0.1400
39     H39     7.6388   -0.4429   -0.5494 H        1 ZINC000274225049    0.1400
40     H40     7.2311   -1.5459    0.8067 H        1 ZINC000274225049    0.1400
41     H41    -1.2871    1.5755    1.4868 H        1 ZINC000274225049    0.1300
42     H42    -2.7133    2.3216    3.3149 H        1 ZINC000274225049    0.1300
43     H43    -3.6552    0.7122    4.9156 H        1 ZINC000274225049    0.1300
44     H44    -3.1862   -1.6694    4.7143 H        1 ZINC000274225049    0.1300
45     H45    -0.6355   -4.2710    1.6798 H        1 ZINC000274225049    0.1300
46     H46     0.3011   -2.6613    0.0774 H        1 ZINC000274225049    0.1300
@<TRIPOS>BOND
1     1     2     1
2     1     28    1
3     1     29    1
4     1     30    1
5     2     3     1
6     2     4     1
7     2     17    1
8     4     5     am
9     4     31    1
10    5     6     2
11    5     7     am
12    7     8     1
13    7     32    1
14    8     9     1
15    8     33    1
16    8     34    1
17    9     10    1
18    9     16    1
19    9     11    1
20    11    12    1
21    11    35    1
22    11    36    1
23    12    13    1
24    12    37    1
25    12    38    1
26    13    14    2
27    13    15    2
28    13    16    1
29    16    39    1
30    16    40    1
31    17    27    ar
32    17    18    ar
33    18    23    ar
34    18    19    ar
35    19    20    ar
36    19    41    1
37    20    21    ar
38    20    42    1
39    21    22    ar
40    21    43    1
41    22    23    ar
42    22    44    1
43    23    24    ar
44    24    25    1
45    24    26    ar
46    26    27    ar
47    26    45    1
48    27    46    1
@<TRIPOS>SUBSTRUCTURE
1   ZINC000274225049 1     RESIDUE    1   A     ZIN   1
@<TRIPOS>MOLECULE
ZINC000492313853
51	53	1	0	0
SMALL
USER_CHARGES
@<TRIPOS>ATOM
1      C1     -0.0178    1.4608    0.0101 C.3      1 ZINC000492313853    0.0900
2      N2      0.0021   -0.0041    0.0020 N.pl3    1 ZINC000492313853   -0.6200
3      C3      0.0241   -0.7433    1.2666 C.3      1 ZINC000492313853    0.1000
4      C4      0.0000   -0.6926   -1.2056 C.ar     1 ZINC000492313853    0.4100
5      C5      0.0902    0.0126   -2.4011 C.ar     1 ZINC000492313853   -0.2400
6      C6      0.0875   -0.6853   -3.5956 C.ar     1 ZINC000492313853   -0.0100
7      C7     -0.0057   -2.0699   -3.5539 C.ar     1 ZINC000492313853   -0.2300
8      C8     -0.0117   -2.8712   -4.8302 C.3      1 ZINC000492313853    0.2000
9      N9      1.3636   -3.2220   -5.1931 N.am     1 ZINC000492313853   -0.7300
10     C10     1.6038   -3.9428   -6.3063 C.2      1 ZINC000492313853    0.7100
11     O11     0.6791   -4.3020   -7.0094 O.2      1 ZINC000492313853   -0.5600
12     N12     2.8691   -4.2655   -6.6402 N.am     1 ZINC000492313853   -0.6600
13     C13     3.1178   -5.0116   -7.7925 C.2      1 ZINC000492313853    0.3300
14     C14     2.1845   -5.4707   -8.6670 C.2      1 ZINC000492313853   -0.2600
15     C15     2.8572   -6.1728   -9.6845 C.2      1 ZINC000492313853    0.1200
16     C16     2.2222   -6.8413  -10.8475 C.ar     1 ZINC000492313853   -0.0100
17     C17     0.8388   -6.8021  -11.0068 C.ar     1 ZINC000492313853   -0.0600
18     C18     0.2534   -7.4252  -12.0906 C.ar     1 ZINC000492313853   -0.1200
19     C19     1.0377   -8.0874  -13.0174 C.ar     1 ZINC000492313853   -0.0700
20     C20     2.4120   -8.1294  -12.8642 C.ar     1 ZINC000492313853   -0.1900
21     C21     3.2602   -8.8525  -13.8784 C.3      1 ZINC000492313853    0.5100
22     F22     2.4382   -9.3946  -14.8723 F        1 ZINC000492313853   -0.1800
23     F23     4.1619   -7.9536  -14.4581 F        1 ZINC000492313853   -0.1800
24     F24     3.9678   -9.8807  -13.2465 F        1 ZINC000492313853   -0.1800
25     C25     3.0081   -7.5055  -11.7872 C.ar     1 ZINC000492313853   -0.0400
26     N26     4.1470   -6.1338   -9.4257 N.2      1 ZINC000492313853   -0.2700
27     N27     4.3371   -5.4048   -8.2451 N.pl3    1 ZINC000492313853   -0.3900
28     C28     5.6245   -5.1235   -7.6049 C.3      1 ZINC000492313853    0.1000
29     C29    -0.0922   -2.7053   -2.3312 C.ar     1 ZINC000492313853    0.1700
30     N30    -0.0823   -2.0143   -1.2072 N.ar     1 ZINC000492313853   -0.5400
31     H31     1.0048    1.8381    0.0023 H        1 ZINC000492313853    0.0600
32     H32    -0.5450    1.8219   -0.8730 H        1 ZINC000492313853    0.0700
33     H33    -0.5280    1.8123    0.9069 H        1 ZINC000492313853    0.0700
34     H34     0.0224   -0.0395    2.0990 H        1 ZINC000492313853    0.0700
35     H35    -0.8567   -1.3823    1.3294 H        1 ZINC000492313853    0.0600
36     H36     0.9230   -1.3581    1.3125 H        1 ZINC000492313853    0.0600
37     H37     0.1610    1.0902   -2.3970 H        1 ZINC000492313853    0.1300
38     H38     0.1559   -0.1647   -4.5394 H        1 ZINC000492313853    0.1400
39     H39    -0.5926   -3.7820   -4.6846 H        1 ZINC000492313853    0.0800
40     H40    -0.4585   -2.2791   -5.6288 H        1 ZINC000492313853    0.0800
41     H41     2.1013   -2.9355   -4.6322 H        1 ZINC000492313853    0.4000
42     H42     3.6068   -3.9789   -6.0793 H        1 ZINC000492313853    0.4100
43     H43     1.1171   -5.3236   -8.5939 H        1 ZINC000492313853    0.1800
44     H44     0.2254   -6.2856  -10.2834 H        1 ZINC000492313853    0.1400
45     H45    -0.8190   -7.3957  -12.2149 H        1 ZINC000492313853    0.1400
46     H46     0.5757   -8.5738  -13.8638 H        1 ZINC000492313853    0.1400
47     H47     4.0810   -7.5388  -11.6685 H        1 ZINC000492313853    0.1400
48     H48     6.0273   -4.1886   -7.9943 H        1 ZINC000492313853    0.0800
49     H49     5.4834   -5.0376   -6.5275 H        1 ZINC000492313853    0.0800
50     H50     6.3205   -5.9352   -7.8167 H        1 ZINC000492313853    0.1000
51     H51    -0.1648   -3.7823   -2.2941 H        1 ZINC000492313853    0.1600
@<TRIPOS>BOND
1     1     2     1
2     1     31    1
3     1     32    1
4     1     33    1
5     2     3     1
6     2     4     1
7     3     34    1
8     3     35    1
9     3     36    1
10    4     30    ar
11    4     5     ar
12    5     6     ar
13    5     37    1
14    6     7     ar
15    6     38    1
16    7     8     1
17    7     29    ar
18    8     9     1
19    8     39    1
20    8     40    1
21    9     10    am
22    9     41    1
23    10    11    2
24    10    12    am
25    12    13    1
26    12    42    1
27    13    27    1
28    13    14    2
29    14    15    1
30    14    43    1
31    15    16    1
32    15    26    2
33    16    25    ar
34    16    17    ar
35    17    18    ar
36    17    44    1
37    18    19    ar
38    18    45    1
39    19    20    ar
40    19    46    1
41    20    21    1
42    20    25    ar
43    21    22    1
44    21    23    1
45    21    24    1
46    25    47    1
47    26    27    1
48    27    28    1
49    28    48    1
50    28    49    1
51    28    50    1
52    29    30    ar
53    29    51    1
@<TRIPOS>SUBSTRUCTURE
1   ZINC000492313853 1     RESIDUE    1   A     ZIN   1
@<TRIPOS>MOLECULE
ZINC001015666108
51	53	1	0	0
SMALL
USER_CHARGES
@<TRIPOS>ATOM
1      C1     -0.0187    1.5258    0.0104 C.3      1 ZINC001015666108   -0.1400
2      C2      0.0021   -0.0041    0.0020 C.3      1 ZINC001015666108   -0.0700
3      C3     -1.4117   -0.5257    0.0127 C.2      1 ZINC001015666108   -0.0700
4      C4     -2.2179   -0.7175   -1.0725 C.2      1 ZINC001015666108   -0.0900
5      C5     -1.8606   -0.4499   -2.4695 C.2      1 ZINC001015666108    0.6100
6      O6     -0.7568   -0.0163   -2.7429 O.2      1 ZINC001015666108   -0.5100
7      N7     -2.7545   -0.6843   -3.4505 N.am     1 ZINC001015666108   -0.7200
8      C8     -2.3976   -0.4170   -4.8460 C.3      1 ZINC001015666108    0.1400
9      H9     -1.7383    0.4488   -4.9081 H        1 ZINC001015666108    0.1100
10     C10    -1.7170   -1.6557   -5.4724 C.3      1 ZINC001015666108   -0.1300
11     C11    -2.8848   -2.3559   -6.2116 C.3      1 ZINC001015666108    0.0300
12     N12    -3.6788   -1.2200   -6.7457 N.3      1 ZINC001015666108   -0.5100
13     C13    -5.0521   -1.6381   -7.0573 C.3      1 ZINC001015666108    0.1700
14     H14    -5.5349   -2.0041   -6.1512 H        1 ZINC001015666108    0.0900
15     C15    -5.8364   -0.4447   -7.6065 C.3      1 ZINC001015666108   -0.1500
16     C16    -5.0211   -2.7364   -8.0887 C.2      1 ZINC001015666108    0.1900
17     N17    -5.7211   -3.8450   -8.0703 N.2      1 ZINC001015666108   -0.4800
18     C18    -5.3685   -4.5144   -9.1823 C.2      1 ZINC001015666108    0.1800
19     C19    -5.8973   -5.8554   -9.6215 C.3      1 ZINC001015666108    0.0000
20     C20    -6.5714   -5.7153  -10.9878 C.3      1 ZINC001015666108   -0.1500
21     C21    -4.7404   -6.8514   -9.7233 C.3      1 ZINC001015666108   -0.1500
22     N22    -4.4884   -3.7921   -9.8086 N.2      1 ZINC001015666108   -0.3800
23     O23    -4.2791   -2.7639   -9.1999 O.3      1 ZINC001015666108    0.1000
24     C24    -3.6664   -0.1841   -5.6870 C.3      1 ZINC001015666108    0.0300
25     O25    -3.4007   -1.1963   -0.6345 O.3      1 ZINC001015666108   -0.1700
26     C26    -3.3665   -1.3133    0.6992 C.2      1 ZINC001015666108    0.0000
27     C27    -2.1529   -0.9142    1.1396 C.2      1 ZINC001015666108   -0.2200
28     H28     1.0039    1.9031    0.0027 H        1 ZINC001015666108    0.0600
29     H29    -0.5459    1.8868   -0.8726 H        1 ZINC001015666108    0.0600
30     H30    -0.5289    1.8773    0.9072 H        1 ZINC001015666108    0.0500
31     H31     0.5123   -0.3556   -0.8948 H        1 ZINC001015666108    0.0900
32     H32     0.5293   -0.3651    0.8851 H        1 ZINC001015666108    0.0700
33     H33    -3.6343   -1.0299   -3.2326 H        1 ZINC001015666108    0.4000
34     H34    -0.9405   -1.3547   -6.1758 H        1 ZINC001015666108    0.0900
35     H35    -1.3070   -2.3036   -4.6977 H        1 ZINC001015666108    0.0800
36     H36    -2.5082   -2.9776   -7.0239 H        1 ZINC001015666108    0.0800
37     H37    -3.4799   -2.9482   -5.5166 H        1 ZINC001015666108    0.0500
38     H38    -5.3536   -0.0786   -8.5126 H        1 ZINC001015666108    0.0800
39     H39    -6.8554   -0.7549   -7.8377 H        1 ZINC001015666108    0.0700
40     H40    -5.8589    0.3497   -6.8605 H        1 ZINC001015666108    0.0800
41     H41    -6.6239   -6.2157   -8.8932 H        1 ZINC001015666108    0.1000
42     H42    -5.8449   -5.3549  -11.7161 H        1 ZINC001015666108    0.0600
43     H43    -6.9539   -6.6852  -11.3055 H        1 ZINC001015666108    0.0700
44     H44    -7.3956   -5.0057  -10.9153 H        1 ZINC001015666108    0.0600
45     H45    -4.0138   -6.4911  -10.4516 H        1 ZINC001015666108    0.0600
46     H46    -4.2602   -6.9513   -8.7499 H        1 ZINC001015666108    0.0600
47     H47    -5.1229   -7.8214  -10.0410 H        1 ZINC001015666108    0.0700
48     H48    -4.5516   -0.2844   -5.0590 H        1 ZINC001015666108    0.0600
49     H49    -3.6385    0.8077   -6.1383 H        1 ZINC001015666108    0.1000
50     H50    -4.1743   -1.6716    1.3201 H        1 ZINC001015666108    0.2100
51     H51    -1.8184   -0.8921    2.1663 H        1 ZINC001015666108    0.1600
@<TRIPOS>BOND
1     1     2     1
2     1     28    1
3     1     29    1
4     1     30    1
5     2     3     1
6     2     31    1
7     2     32    1
8     3     27    1
9     3     4     2
10    4     5     1
11    4     25    1
12    5     6     2
13    5     7     am
14    7     8     1
15    7     33    1
16    8     9     1
17    8     24    1
18    8     10    1
19    10    11    1
20    10    34    1
21    10    35    1
22    11    12    1
23    11    36    1
24    11    37    1
25    12    13    1
26    12    24    1
27    13    14    1
28    13    15    1
29    13    16    1
30    15    38    1
31    15    39    1
32    15    40    1
33    16    23    1
34    16    17    2
35    17    18    1
36    18    19    1
37    18    22    2
38    19    20    1
39    19    21    1
40    19    41    1
41    20    42    1
42    20    43    1
43    20    44    1
44    21    45    1
45    21    46    1
46    21    47    1
47    22    23    1
48    24    48    1
49    24    49    1
50    25    26    1
51    26    27    2
52    26    50    1
53    27    51    1
@<TRIPOS>SUBSTRUCTURE
1   ZINC001015666108 1     RESIDUE    1   A     ZIN   1
@<TRIPOS>MOLECULE
ZINC001369071670
45	47	1	0	0
SMALL
USER_CHARGES
@<TRIPOS>ATOM
1      C1     -0.0184    1.5028    0.0103 C.3      1 ZINC001369071670   -0.0800
2      C2      0.0021   -0.0041    0.0020 C.2      1 ZINC001369071670    0.0000
3      C3     -1.0713   -0.8273    0.0024 C.2      1 ZINC001369071670   -0.2300
4      C4     -0.5048   -2.1286   -0.0072 C.2      1 ZINC001369071670    0.2100
5      O5     -1.1750   -3.3086   -0.0110 O.3      1 ZINC001369071670   -0.2600
6      C6     -0.3883   -4.5015   -0.0209 C.3      1 ZINC001369071670    0.0400
7      C7     -1.2978   -5.7031   -0.0238 C.2      1 ZINC001369071670    0.5200
8      O8     -2.5013   -5.5527   -0.0180 O.2      1 ZINC001369071670   -0.5100
9      N9     -0.7739   -6.9448   -0.0330 N.am     1 ZINC001369071670   -0.7200
10     C10    -1.6581   -8.1129   -0.0358 C.3      1 ZINC001369071670    0.1500
11     H11    -2.5461   -7.8979    0.5586 H        1 ZINC001369071670    0.0900
12     C12    -2.0722   -8.4357   -1.4729 C.3      1 ZINC001369071670   -0.1700
13     C13    -0.9210   -9.3120    0.5641 C.3      1 ZINC001369071670   -0.1200
14     C14    -0.9549   -9.3538    2.1025 C.3      1 ZINC001369071670    0.0100
15     N15    -1.1964  -10.8065    1.9591 N.3      1 ZINC001369071670   -0.4800
16     C16    -2.2279  -11.2641    2.8996 C.3      1 ZINC001369071670    0.1000
17     C17    -2.2739  -12.7704    2.9008 C.2      1 ZINC001369071670    0.1900
18     N18    -3.0070  -13.5315    2.1255 N.2      1 ZINC001369071670   -0.3000
19     N19    -2.7658  -14.7598    2.4305 N.2      1 ZINC001369071670   -0.0700
20     N20    -1.8979  -14.8020    3.3803 N.2      1 ZINC001369071670   -0.0900
21     N21    -1.5659  -13.5954    3.6943 N.pl3    1 ZINC001369071670   -0.3000
22     C22    -0.6059  -13.1978    4.7270 C.3      1 ZINC001369071670    0.0800
23     C23    -1.7646  -10.5988    0.6088 C.3      1 ZINC001369071670    0.0200
24     N24     0.7908   -1.9630   -0.0122 N.2      1 ZINC001369071670   -0.4100
25     O25     1.0877   -0.7908   -0.0130 O.3      1 ZINC001369071670    0.1000
26     H26     1.0042    1.8801    0.0026 H        1 ZINC001369071670    0.0900
27     H27    -0.5455    1.8639   -0.8728 H        1 ZINC001369071670    0.1000
28     H28    -0.5286    1.8543    0.9071 H        1 ZINC001369071670    0.1000
29     H29    -2.1169   -0.5570    0.0086 H        1 ZINC001369071670    0.1800
30     H30     0.2370   -4.5170   -0.9137 H        1 ZINC001369071670    0.1000
31     H31     0.2444   -4.5269    0.8663 H        1 ZINC001369071670    0.1000
32     H32     0.1886   -7.0651   -0.0377 H        1 ZINC001369071670    0.4000
33     H33    -2.5973   -7.5814   -1.9002 H        1 ZINC001369071670    0.0600
34     H34    -1.1842   -8.6507   -2.0673 H        1 ZINC001369071670    0.0600
35     H35    -2.7300   -9.3048   -1.4750 H        1 ZINC001369071670    0.0700
36     H36     0.0737   -9.4539    0.1416 H        1 ZINC001369071670    0.1100
37     H37    -0.0004   -9.1113    2.5696 H        1 ZINC001369071670    0.1000
38     H38    -1.7933   -8.8102    2.5382 H        1 ZINC001369071670    0.0800
39     H39    -1.9900  -10.9071    3.9016 H        1 ZINC001369071670    0.1000
40     H40    -3.1978  -10.8712    2.5946 H        1 ZINC001369071670    0.0900
41     H41     0.3901  -13.1276    4.2896 H        1 ZINC001369071670    0.1000
42     H42    -0.8923  -12.2288    5.1357 H        1 ZINC001369071670    0.1000
43     H43    -0.6010  -13.9413    5.5241 H        1 ZINC001369071670    0.1100
44     H44    -2.8397  -10.4193    0.6076 H        1 ZINC001369071670    0.0800
45     H45    -1.4570  -11.3510   -0.1176 H        1 ZINC001369071670    0.1000
@<TRIPOS>BOND
1     1     2     1
2     1     26    1
3     1     27    1
4     1     28    1
5     2     25    1
6     2     3     2
7     3     4     1
8     3     29    1
9     4     5     1
10    4     24    2
11    5     6     1
12    6     7     1
13    6     30    1
14    6     31    1
15    7     8     2
16    7     9     am
17    9     10    1
18    9     32    1
19    10    11    1
20    10    12    1
21    10    13    1
22    12    33    1
23    12    34    1
24    12    35    1
25    13    23    1
26    13    14    1
27    13    36    1
28    14    15    1
29    14    37    1
30    14    38    1
31    15    16    1
32    15    23    1
33    16    17    1
34    16    39    1
35    16    40    1
36    17    21    1
37    17    18    2
38    18    19    1
39    19    20    2
40    20    21    1
41    21    22    1
42    22    41    1
43    22    42    1
44    22    43    1
45    23    44    1
46    23    45    1
47    24    25    1
@<TRIPOS>SUBSTRUCTURE
1   ZINC001369071670 1     RESIDUE    1   A     ZIN   1
@<TRIPOS>MOLECULE
ZINC000949401225
48	50	1	0	0
SMALL
USER_CHARGES
@<TRIPOS>ATOM
1      C1      5.3277   -3.4362    6.6857 C.3      1 ZINC000949401225    0.0700
2      N2      4.5670   -4.1875    5.6842 N.pl3    1 ZINC000949401225   -0.4500
3      C3      4.9130   -5.4164    5.2027 C.2      1 ZINC000949401225   -0.0100
4      C4      3.9932   -5.8051    4.3018 C.2      1 ZINC000949401225   -0.1700
5      C5      3.0050   -4.7235    4.2284 C.2      1 ZINC000949401225   -0.2400
6      C6      1.8022   -4.6796    3.3798 C.2      1 ZINC000949401225    0.5900
7      O7      1.0644   -3.7136    3.4202 O.2      1 ZINC000949401225   -0.5500
8      N8      1.5191   -5.7100    2.5585 N.am     1 ZINC000949401225   -0.7300
9      C9      0.3226   -5.6664    1.7143 C.3      1 ZINC000949401225    0.1200
10     C10     0.3011   -6.8902    0.7963 C.3      1 ZINC000949401225    0.1200
11     H11     1.2678   -7.0857    0.3322 H        1 ZINC000949401225    0.1000
12     C12    -0.3270   -8.1309    1.4462 C.3      1 ZINC000949401225   -0.1500
13     C13    -0.9265   -8.3393    0.0486 C.3      1 ZINC000949401225    0.1000
14     N14    -0.8171   -6.8864   -0.1589 N.am     1 ZINC000949401225   -0.6400
15     C15    -1.4602   -5.9604   -0.8975 C.2      1 ZINC000949401225    0.5500
16     O16    -1.0624   -4.8148   -0.9142 O.2      1 ZINC000949401225   -0.5200
17     C17    -2.6735   -6.3486   -1.7026 C.3      1 ZINC000949401225   -0.1400
18     C18    -3.2758   -5.1006   -2.3512 C.3      1 ZINC000949401225    0.1500
19     H19    -3.4458   -4.3300   -1.5992 H        1 ZINC000949401225    0.0900
20     C20    -2.3394   -4.5691   -3.4590 C.3      1 ZINC000949401225   -0.1200
21     C21    -3.3523   -4.0528   -4.5071 C.3      1 ZINC000949401225   -0.1600
22     C22    -4.6052   -4.8575   -4.2401 C.2      1 ZINC000949401225    0.5200
23     O23    -5.5387   -4.9644   -5.0069 O.2      1 ZINC000949401225   -0.5300
24     N24    -4.5342   -5.4367   -3.0275 N.am     1 ZINC000949401225   -0.6200
25     C25    -5.5772   -6.2938   -2.4585 C.3      1 ZINC000949401225    0.0900
26     C26     3.4232   -3.7665    5.1115 C.2      1 ZINC000949401225    0.0800
27     H27     4.9757   -3.7005    7.6828 H        1 ZINC000949401225    0.0800
28     H28     6.3861   -3.6815    6.5972 H        1 ZINC000949401225    0.0900
29     H29     5.1875   -2.3677    6.5221 H        1 ZINC000949401225    0.0900
30     H30     5.7833   -5.9842    5.4969 H        1 ZINC000949401225    0.1700
31     H31     3.9841   -6.7294    3.7433 H        1 ZINC000949401225    0.1500
32     H32     2.1075   -6.4804    2.5263 H        1 ZINC000949401225    0.4000
33     H33    -0.5669   -5.6691    2.3443 H        1 ZINC000949401225    0.0700
34     H34     0.3370   -4.7592    1.1101 H        1 ZINC000949401225    0.0900
35     H35     0.3933   -8.8936    1.7418 H        1 ZINC000949401225    0.1000
36     H36    -1.0622   -7.9067    2.2190 H        1 ZINC000949401225    0.1000
37     H37    -0.2872   -8.9210   -0.6156 H        1 ZINC000949401225    0.0900
38     H38    -1.9551   -8.6996    0.0668 H        1 ZINC000949401225    0.0800
39     H39    -2.3834   -7.0572   -2.4783 H        1 ZINC000949401225    0.1000
40     H40    -3.4122   -6.8097   -1.0470 H        1 ZINC000949401225    0.1000
41     H41    -1.7158   -3.7567   -3.0860 H        1 ZINC000949401225    0.1000
42     H42    -1.7272   -5.3715   -3.8704 H        1 ZINC000949401225    0.0800
43     H43    -3.5435   -2.9896   -4.3614 H        1 ZINC000949401225    0.1100
44     H44    -2.9861   -4.2407   -5.5164 H        1 ZINC000949401225    0.1000
45     H45    -6.3623   -6.4505   -3.1982 H        1 ZINC000949401225    0.0800
46     H46    -5.1451   -7.2545   -2.1782 H        1 ZINC000949401225    0.0600
47     H47    -6.0001   -5.8142   -1.5758 H        1 ZINC000949401225    0.0600
48     H48     2.9245   -2.8295    5.3108 H        1 ZINC000949401225    0.1800
@<TRIPOS>BOND
1     1     2     1
2     1     27    1
3     1     28    1
4     1     29    1
5     2     26    1
6     2     3     1
7     3     4     2
8     3     30    1
9     4     5     1
10    4     31    1
11    5     6     1
12    5     26    2
13    6     7     2
14    6     8     am
15    8     9     1
16    8     32    1
17    9     10    1
18    9     33    1
19    9     34    1
20    10    11    1
21    10    14    1
22    10    12    1
23    12    13    1
24    12    35    1
25    12    36    1
26    13    14    1
27    13    37    1
28    13    38    1
29    14    15    am
30    15    16    2
31    15    17    1
32    17    18    1
33    17    39    1
34    17    40    1
35    18    19    1
36    18    24    1
37    18    20    1
38    20    21    1
39    20    41    1
40    20    42    1
41    21    22    1
42    21    43    1
43    21    44    1
44    22    23    2
45    22    24    am
46    24    25    1
47    25    45    1
48    25    46    1
49    25    47    1
50    26    48    1
@<TRIPOS>SUBSTRUCTURE
1   ZINC000949401225 1     RESIDUE    1   A     ZIN   1
@<TRIPOS>MOLECULE
ZINC000347662449
44	46	1	0	0
SMALL
USER_CHARGES
@<TRIPOS>ATOM
1      C1     -0.0157    1.3058    0.0092 C.2      1 ZINC000347662449   -0.1800
2      C2      0.0021   -0.0041    0.0020 C.2      1 ZINC000347662449   -0.1700
3      C3      1.3172   -0.7397   -0.0145 C.3      1 ZINC000347662449    0.1600
4      N4      1.3674   -1.6756    1.1115 N.am     1 ZINC000347662449   -0.6200
5      C5      1.8817   -1.3404    2.4446 C.3      1 ZINC000347662449    0.1100
6      C6      1.3454   -2.4443    3.3828 C.3      1 ZINC000347662449   -0.1100
7      C7      1.1386   -3.6201    2.4001 C.3      1 ZINC000347662449   -0.1200
8      H8      2.0181   -4.2638    2.3849 H        1 ZINC000347662449    0.1400
9      S9     -0.3333   -4.5718    2.8519 S.3      1 ZINC000347662449    0.0300
10     C10    -0.2192   -5.8852    1.6828 C.2      1 ZINC000347662449    0.1900
11     N11     0.7248   -6.0325    0.7825 N.2      1 ZINC000347662449   -0.4500
12     C12     0.4887   -7.1456    0.0677 C.2      1 ZINC000347662449   -0.0100
13     C13    -0.6364   -7.7166    0.5307 C.2      1 ZINC000347662449   -0.0400
14     N14    -1.0933   -6.9252    1.5629 N.pl3    1 ZINC000347662449   -0.4000
15     C15    -2.2420   -7.1434    2.3364 C.ar     1 ZINC000347662449    0.1100
16     C16    -2.1663   -7.0990    3.7217 C.ar     1 ZINC000347662449   -0.1100
17     C17    -3.2999   -7.3145    4.4813 C.ar     1 ZINC000347662449   -0.1000
18     C18    -4.5089   -7.5742    3.8630 C.ar     1 ZINC000347662449   -0.0800
19     C19    -5.7438   -7.8083    4.6945 C.3      1 ZINC000347662449   -0.1200
20     C20    -4.5874   -7.6191    2.4830 C.ar     1 ZINC000347662449   -0.0700
21     C21    -5.9072   -7.9024    1.8129 C.3      1 ZINC000347662449   -0.1200
22     C22    -3.4588   -7.3988    1.7182 C.ar     1 ZINC000347662449   -0.1100
23     C23     0.9431   -2.9499    1.0580 C.2      1 ZINC000347662449    0.5300
24     O24     0.4780   -3.4865    0.0748 O.2      1 ZINC000347662449   -0.4900
25     H25     0.9122    1.8585    0.0033 H        1 ZINC000347662449    0.1000
26     H26    -0.9582    1.8330    0.0166 H        1 ZINC000347662449    0.1000
27     H27    -0.9258   -0.5567    0.0079 H        1 ZINC000347662449    0.1100
28     H28     1.4134   -1.2911   -0.9498 H        1 ZINC000347662449    0.0900
29     H29     2.1349   -0.0241    0.0711 H        1 ZINC000347662449    0.0900
30     H30     2.9717   -1.3454    2.4406 H        1 ZINC000347662449    0.0800
31     H31     1.5094   -0.3651    2.7582 H        1 ZINC000347662449    0.0900
32     H32     2.0808   -2.6987    4.1461 H        1 ZINC000347662449    0.1100
33     H33     0.4010   -2.1451    3.8374 H        1 ZINC000347662449    0.0900
34     H34     1.0994   -7.5182   -0.7414 H        1 ZINC000347662449    0.1800
35     H35    -1.0936   -8.6245    0.1659 H        1 ZINC000347662449    0.1800
36     H36    -1.2221   -6.8965    4.2053 H        1 ZINC000347662449    0.1300
37     H37    -3.2415   -7.2804    5.5592 H        1 ZINC000347662449    0.1300
38     H38    -6.2468   -6.8580    4.8735 H        1 ZINC000347662449    0.0800
39     H39    -6.4170   -8.4814    4.1636 H        1 ZINC000347662449    0.0700
40     H40    -5.4607   -8.2548    5.6477 H        1 ZINC000347662449    0.0700
41     H41    -6.4309   -6.9641    1.6303 H        1 ZINC000347662449    0.0800
42     H42    -5.7316   -8.4110    0.8649 H        1 ZINC000347662449    0.0700
43     H43    -6.5137   -8.5373    2.4588 H        1 ZINC000347662449    0.0800
44     H44    -3.5207   -7.4337    0.6406 H        1 ZINC000347662449    0.1300
@<TRIPOS>BOND
1     1     2     2
2     1     25    1
3     1     26    1
4     2     3     1
5     2     27    1
6     3     4     1
7     3     28    1
8     3     29    1
9     4     23    am
10    4     5     1
11    5     6     1
12    5     30    1
13    5     31    1
14    6     7     1
15    6     32    1
16    6     33    1
17    7     8     1
18    7     9     1
19    7     23    1
20    9     10    1
21    10    14    1
22    10    11    2
23    11    12    1
24    12    13    2
25    12    34    1
26    13    14    1
27    13    35    1
28    14    15    1
29    15    22    ar
30    15    16    ar
31    16    17    ar
32    16    36    1
33    17    18    ar
34    17    37    1
35    18    19    1
36    18    20    ar
37    19    38    1
38    19    39    1
39    19    40    1
40    20    21    1
41    20    22    ar
42    21    41    1
43    21    42    1
44    21    43    1
45    22    44    1
46    23    24    2
@<TRIPOS>SUBSTRUCTURE
1   ZINC000347662449 1     RESIDUE    1   A     ZIN   1
@<TRIPOS>MOLECULE
ZINC000004040798
31	33	1	0	0
SMALL
USER_CHARGES
@<TRIPOS>ATOM
1      O1      0.0016   -0.0038   -0.0017 O.2      1 ZINC000004040798   -0.4800
2      C2     -0.0145    1.2127    0.0118 C.2      1 ZINC000004040798    0.6100
3      N3      1.1435    1.9022    0.0014 N.am     1 ZINC000004040798   -0.6600
4      C4      2.3626    1.2229    0.0916 C.ar     1 ZINC000004040798    0.2300
5      C5      2.4192   -0.0287    0.6902 C.ar     1 ZINC000004040798   -0.1300
6      C6      3.6250   -0.6971    0.7779 C.ar     1 ZINC000004040798   -0.0100
7      C7      4.7751   -0.1215    0.2705 C.ar     1 ZINC000004040798   -0.0600
8      N8      6.0651   -0.8410    0.3664 N.pl3    1 ZINC000004040798    0.0300
9      O9      6.1126   -1.9388    0.8919 O.2      1 ZINC000004040798   -0.1500
10     O10     7.0792   -0.3353   -0.0802 O.2      1 ZINC000004040798   -0.1500
11     C11     4.7230    1.1247   -0.3270 C.ar     1 ZINC000004040798    0.0000
12     C12     3.5195    1.7966   -0.4228 C.ar     1 ZINC000004040798   -0.1400
13     Br13    3.4488    3.5005   -1.2398 Br       1 ZINC000004040798    0.0000
14     C14    -1.2966    1.9302    0.0334 C.2      1 ZINC000004040798   -0.0500
15     C15    -2.5211    1.3425    0.0455 C.2      1 ZINC000004040798   -0.0800
16     C16    -3.4942    2.4341    0.0655 C.ar     1 ZINC000004040798   -0.1500
17     C17    -4.8894    2.4943    0.0842 C.ar     1 ZINC000004040798   -0.0500
18     C18    -5.5147    3.7094    0.1005 C.ar     1 ZINC000004040798   -0.1400
19     C19    -4.7726    4.8823    0.0982 C.ar     1 ZINC000004040798   -0.0700
20     C20    -3.3949    4.8444    0.0799 C.ar     1 ZINC000004040798   -0.1100
21     C21    -2.7366    3.6204    0.0636 C.ar     1 ZINC000004040798    0.0800
22     O22    -1.4351    3.2725    0.0501 O.3      1 ZINC000004040798   -0.1900
23     H23     1.1313    2.8696   -0.0688 H        1 ZINC000004040798    0.4300
24     H24     1.5214   -0.4790    1.0873 H        1 ZINC000004040798    0.1800
25     H25     3.6694   -1.6704    1.2438 H        1 ZINC000004040798    0.1700
26     H26     5.6232    1.5716   -0.7224 H        1 ZINC000004040798    0.1700
27     H27    -2.7332    0.2835    0.0407 H        1 ZINC000004040798    0.1800
28     H28    -5.4716    1.5847    0.0854 H        1 ZINC000004040798    0.1400
29     H29    -6.5935    3.7573    0.1149 H        1 ZINC000004040798    0.1400
30     H30    -5.2804    5.8354    0.1105 H        1 ZINC000004040798    0.1400
31     H31    -2.8281    5.7637    0.0786 H        1 ZINC000004040798    0.1400
@<TRIPOS>BOND
1     1     2     2
2     2     3     am
3     2     14    1
4     3     4     1
5     3     23    1
6     4     12    ar
7     4     5     ar
8     5     6     ar
9     5     24    1
10    6     7     ar
11    6     25    1
12    7     8     1
13    7     11    ar
14    8     9     2
15    8     10    2
16    11    12    ar
17    11    26    1
18    12    13    1
19    14    22    1
20    14    15    2
21    15    16    1
22    15    27    1
23    16    21    ar
24    16    17    ar
25    17    18    ar
26    17    28    1
27    18    19    ar
28    18    29    1
29    19    20    ar
30    19    30    1
31    20    21    ar
32    20    31    1
33    21    22    1
@<TRIPOS>SUBSTRUCTURE
1   ZINC000004040798 1     RESIDUE    1   A     ZIN   1
@<TRIPOS>MOLECULE
ZINC000746432885
52	54	1	0	0
SMALL
USER_CHARGES
@<TRIPOS>ATOM
1      C1     -0.0173    1.4248    0.0099 C.3      1 ZINC000746432885    0.0300
2      O2      0.0021   -0.0041    0.0020 O.3      1 ZINC000746432885   -0.3200
3      C3      0.6258   -0.6184    1.0415 C.ar     1 ZINC000746432885    0.1300
4      C4      1.2023    0.1384    2.0512 C.ar     1 ZINC000746432885   -0.2000
5      C5      1.8358   -0.4884    3.1067 C.ar     1 ZINC000746432885   -0.0800
6      C6      1.8960   -1.8688    3.1572 C.ar     1 ZINC000746432885   -0.1400
7      C7      1.3222   -2.6253    2.1521 C.ar     1 ZINC000746432885   -0.0600
8      C8      1.3892   -4.1297    2.2104 C.3      1 ZINC000746432885    0.2300
9      N9      2.7104   -4.5414    2.6914 N.am     1 ZINC000746432885   -0.6900
10     C10     3.7365   -4.6582    1.8254 C.2      1 ZINC000746432885    0.5200
11     O11     3.5660   -4.4224    0.6471 O.2      1 ZINC000746432885   -0.5100
12     C12     5.0831   -5.0778    2.3156 C.2      1 ZINC000746432885    0.5100
13     O13     5.2537   -5.3137    3.4942 O.2      1 ZINC000746432885   -0.5100
14     N14     6.1092   -5.1947    1.4496 N.am     1 ZINC000746432885   -0.6100
15     C15     7.3761   -5.5894    1.9107 C.2      1 ZINC000746432885    0.0000
16     C16     8.4929   -5.7410    1.1522 C.2      1 ZINC000746432885    0.0400
17     N17     9.4956   -6.1296    1.9721 N.pl3    1 ZINC000746432885   -0.3800
18     C18    10.8770   -6.4070    1.5711 C.3      1 ZINC000746432885    0.2500
19     C19    11.7959   -5.5847    2.3750 C.1      1 ZINC000746432885    0.1900
20     N20    12.5049   -4.9501    2.9955 N.1      1 ZINC000746432885   -0.3900
21     N21     8.9818   -6.2199    3.2719 N.2      1 ZINC000746432885   -0.2800
22     C22     7.7158   -5.8918    3.2384 C.2      1 ZINC000746432885    0.0700
23     C23     0.3297   -4.6436    3.1509 C.ar     1 ZINC000746432885   -0.0500
24     C24     0.5431   -4.6100    4.5165 C.ar     1 ZINC000746432885   -0.1500
25     C25    -0.4272   -5.0803    5.3820 C.ar     1 ZINC000746432885   -0.0700
26     C26    -1.6127   -5.5852    4.8839 C.ar     1 ZINC000746432885   -0.2000
27     C27    -1.8292   -5.6201    3.5141 C.ar     1 ZINC000746432885    0.1300
28     O28    -2.9946   -6.1163    3.0216 O.3      1 ZINC000746432885   -0.3200
29     C29    -3.9531   -6.5852    3.9721 C.3      1 ZINC000746432885    0.0300
30     C30    -0.8562   -5.1427    2.6480 C.ar     1 ZINC000746432885   -0.1300
31     C31     0.6822   -2.0034    1.0976 C.ar     1 ZINC000746432885   -0.1300
32     H32     1.0053    1.8021    0.0021 H        1 ZINC000746432885    0.0600
33     H33    -0.5445    1.7859   -0.8732 H        1 ZINC000746432885    0.1000
34     H34    -0.5275    1.7763    0.9067 H        1 ZINC000746432885    0.0600
35     H35     1.1562    1.2167    2.0119 H        1 ZINC000746432885    0.1300
36     H36     2.2847    0.1003    3.8931 H        1 ZINC000746432885    0.1300
37     H37     2.3923   -2.3570    3.9828 H        1 ZINC000746432885    0.1200
38     H38     1.2210   -4.5398    1.2146 H        1 ZINC000746432885    0.1200
39     H39     2.8467   -4.7299    3.6331 H        1 ZINC000746432885    0.4200
40     H40     5.9729   -5.0062    0.5079 H        1 ZINC000746432885    0.4200
41     H41     8.5665   -5.5804    0.0867 H        1 ZINC000746432885    0.1900
42     H42    11.0975   -7.4621    1.7332 H        1 ZINC000746432885    0.1300
43     H43    11.0041   -6.1673    0.5154 H        1 ZINC000746432885    0.1500
44     H44     7.0461   -5.8648    4.0852 H        1 ZINC000746432885    0.2100
45     H45     1.4694   -4.2160    4.9079 H        1 ZINC000746432885    0.1200
46     H46    -0.2580   -5.0533    6.4484 H        1 ZINC000746432885    0.1300
47     H47    -2.3701   -5.9528    5.5604 H        1 ZINC000746432885    0.1300
48     H48    -4.8347   -6.9537    3.4475 H        1 ZINC000746432885    0.1000
49     H49    -3.5166   -7.3922    4.5604 H        1 ZINC000746432885    0.0600
50     H50    -4.2392   -5.7672    4.6333 H        1 ZINC000746432885    0.0600
51     H51    -1.0224   -5.1687    1.5812 H        1 ZINC000746432885    0.1400
52     H52     0.2342   -2.5947    0.3127 H        1 ZINC000746432885    0.1300
@<TRIPOS>BOND
1     1     2     1
2     1     32    1
3     1     33    1
4     1     34    1
5     2     3     1
6     3     31    ar
7     3     4     ar
8     4     5     ar
9     4     35    1
10    5     6     ar
11    5     36    1
12    6     7     ar
13    6     37    1
14    7     8     1
15    7     31    ar
16    8     9     1
17    8     23    1
18    8     38    1
19    9     10    am
20    9     39    1
21    10    11    2
22    10    12    1
23    12    13    2
24    12    14    am
25    14    15    1
26    14    40    1
27    15    22    1
28    15    16    2
29    16    17    1
30    16    41    1
31    17    18    1
32    17    21    1
33    18    19    1
34    18    42    1
35    18    43    1
36    19    20    3
37    21    22    2
38    22    44    1
39    23    30    ar
40    23    24    ar
41    24    25    ar
42    24    45    1
43    25    26    ar
44    25    46    1
45    26    27    ar
46    26    47    1
47    27    28    1
48    27    30    ar
49    28    29    1
50    29    48    1
51    29    49    1
52    29    50    1
53    30    51    1
54    31    52    1
@<TRIPOS>SUBSTRUCTURE
1   ZINC000746432885 1     RESIDUE    1   A     ZIN   1
@<TRIPOS>MOLECULE
ZINC000979274057
46	48	1	0	0
SMALL
USER_CHARGES
@<TRIPOS>ATOM
1      C1     -0.3331    1.7193    0.4493 C.3      1 ZINC000979274057   -0.1400
2      C2     -0.1568    0.2026    0.3532 C.3      1 ZINC000979274057    0.1000
3      H3      0.4803   -0.1415    1.1680 H        1 ZINC000979274057    0.0600
4      N4      0.4665   -0.1375   -0.9328 N.3      1 ZINC000979274057   -0.6700
5      C5      1.9303   -0.0469   -0.8486 C.3      1 ZINC000979274057    0.1300
6      C6      2.5332   -0.4018   -2.1834 C.ar     1 ZINC000979274057    0.3200
7      N7      2.8351   -1.6595   -2.4368 N.ar     1 ZINC000979274057   -0.5200
8      C8      3.3658   -2.0087   -3.5976 C.ar     1 ZINC000979274057    0.1500
9      C9      3.6028   -1.0316   -4.5517 C.ar     1 ZINC000979274057   -0.2300
10     C10     3.2721    0.2797   -4.2485 C.ar     1 ZINC000979274057    0.1500
11     N11     2.7395    0.5529   -3.0683 N.ar     1 ZINC000979274057   -0.5000
12     C12    -1.5239   -0.4771    0.4529 C.3      1 ZINC000979274057    0.0800
13     H13    -1.9869   -0.2254    1.4070 H        1 ZINC000979274057    0.0700
14     C14    -1.3486   -1.9968    0.3540 C.3      1 ZINC000979274057    0.0800
15     N15    -2.6819   -2.6128    0.2636 N.am     1 ZINC000979274057   -0.6000
16     C16    -3.0329   -3.6296    1.0756 C.2      1 ZINC000979274057    0.6100
17     O17    -2.2866   -3.9788    1.9702 O.2      1 ZINC000979274057   -0.5400
18     C18    -4.3205   -4.3181    0.8797 C.2      1 ZINC000979274057   -0.0600
19     C19    -4.8576   -5.2711    1.6947 C.2      1 ZINC000979274057    0.0400
20     N20    -6.0427   -5.6323    1.1490 N.pl3    1 ZINC000979274057   -0.4600
21     C21    -6.9718   -6.6305    1.6843 C.3      1 ZINC000979274057    0.0700
22     C22    -6.2161   -4.9028    0.0162 C.2      1 ZINC000979274057    0.1900
23     N23    -5.1915   -4.1155   -0.1418 N.2      1 ZINC000979274057   -0.4600
24     C24    -3.6209   -2.0857   -0.7393 C.3      1 ZINC000979274057    0.0500
25     C25    -3.6854   -0.5616   -0.5871 C.3      1 ZINC000979274057    0.0500
26     O26    -2.3595   -0.0281   -0.6167 O.3      1 ZINC000979274057   -0.3600
27     H27     0.6409    2.2035    0.3783 H        1 ZINC000979274057    0.0600
28     H28    -0.9701    2.0634   -0.3655 H        1 ZINC000979274057    0.0700
29     H29    -0.7956    1.9717    1.4035 H        1 ZINC000979274057    0.0600
30     H30     0.1782   -1.0532   -1.2434 H        1 ZINC000979274057    0.3500
31     H31     2.2165    0.9699   -0.5795 H        1 ZINC000979274057    0.1000
32     H32     2.2942   -0.7396   -0.0898 H        1 ZINC000979274057    0.0600
33     H33     3.6112   -3.0410   -3.7988 H        1 ZINC000979274057    0.1700
34     H34     4.0352   -1.2860   -5.5081 H        1 ZINC000979274057    0.1500
35     H35     3.4430    1.0674   -4.9673 H        1 ZINC000979274057    0.1700
36     H36    -0.7696   -2.2424   -0.5363 H        1 ZINC000979274057    0.0700
37     H37    -0.8333   -2.3654    1.2409 H        1 ZINC000979274057    0.1000
38     H38    -4.4209   -5.6627    2.6015 H        1 ZINC000979274057    0.1900
39     H39    -7.6758   -6.1458    2.3608 H        1 ZINC000979274057    0.0800
40     H40    -7.5180   -7.0955    0.8636 H        1 ZINC000979274057    0.0900
41     H41    -6.4130   -7.3930    2.2269 H        1 ZINC000979274057    0.0900
42     H42    -7.0683   -4.9633   -0.6444 H        1 ZINC000979274057    0.2100
43     H43    -3.2707   -2.3402   -1.7397 H        1 ZINC000979274057    0.0700
44     H44    -4.6102   -2.5131   -0.5764 H        1 ZINC000979274057    0.1500
45     H45    -4.2666   -0.1382   -1.4064 H        1 ZINC000979274057    0.1100
46     H46    -4.1572   -0.3103    0.3628 H        1 ZINC000979274057    0.0500
@<TRIPOS>BOND
1     1     2     1
2     1     27    1
3     1     28    1
4     1     29    1
5     2     3     1
6     2     4     1
7     2     12    1
8     4     5     1
9     4     30    1
10    5     6     1
11    5     31    1
12    5     32    1
13    6     11    ar
14    6     7     ar
15    7     8     ar
16    8     9     ar
17    8     33    1
18    9     10    ar
19    9     34    1
20    10    11    ar
21    10    35    1
22    12    13    1
23    12    26    1
24    12    14    1
25    14    15    1
26    14    36    1
27    14    37    1
28    15    16    am
29    15    24    1
30    16    17    2
31    16    18    1
32    18    23    1
33    18    19    2
34    19    20    1
35    19    38    1
36    20    21    1
37    20    22    1
38    21    39    1
39    21    40    1
40    21    41    1
41    22    23    2
42    22    42    1
43    24    25    1
44    24    43    1
45    24    44    1
46    25    26    1
47    25    45    1
48    25    46    1
@<TRIPOS>SUBSTRUCTURE
1   ZINC000979274057 1     RESIDUE    1   A     ZIN   1
@<TRIPOS>MOLECULE
ZINC000931749147
49	51	1	0	0
SMALL
USER_CHARGES
@<TRIPOS>ATOM
1      C1      0.4838    1.4006   -0.0078 C.3      1 ZINC000931749147   -0.1100
2      C2      0.0000   -0.0266   -0.0176 C.ar     1 ZINC000931749147   -0.1300
3      C3     -0.2775   -0.6578   -1.2223 C.ar     1 ZINC000931749147    0.1800
4      N4     -0.1078    0.0309   -2.4299 N.am     1 ZINC000931749147   -0.6800
5      C5      0.0720   -0.6539   -3.5767 C.2      1 ZINC000931749147    0.7100
6      O6      0.0353   -1.8693   -3.5712 O.2      1 ZINC000931749147   -0.5500
7      N7      0.2924    0.0084   -4.7296 N.am     1 ZINC000931749147   -0.6200
8      C8      0.5138    1.4631   -4.7371 C.3      1 ZINC000931749147    0.0700
9      C9     -0.4247    2.0897   -5.7747 C.3      1 ZINC000931749147    0.0500
10     O10    -0.2609    1.4161   -7.0250 O.3      1 ZINC000931749147   -0.3700
11     C11    -0.6097    0.0300   -6.9932 C.3      1 ZINC000931749147    0.0500
12     C12     0.3249   -0.7028   -6.0175 C.3      1 ZINC000931749147    0.1300
13     H13     1.3398   -0.7076   -6.4149 H        1 ZINC000931749147    0.0900
14     C14    -0.1589   -2.1412   -5.8226 C.3      1 ZINC000931749147   -0.1100
15     C15    -0.1855   -2.8578   -7.1742 C.3      1 ZINC000931749147   -0.1000
16     C16     1.2412   -2.9774   -7.7189 C.3      1 ZINC000931749147   -0.1500
17     C17     1.2135   -3.7642   -9.0318 C.3      1 ZINC000931749147    0.0600
18     O18     0.6279   -5.0478   -8.8042 O.3      1 ZINC000931749147   -0.3800
19     C19    -0.7224   -4.9989   -8.3391 C.3      1 ZINC000931749147    0.0600
20     C20    -0.7725   -4.2617   -6.9983 C.3      1 ZINC000931749147   -0.1500
21     C21    -0.7232   -1.9729   -1.2288 C.ar     1 ZINC000931749147   -0.1200
22     C22    -0.8899   -2.6516   -0.0374 C.ar     1 ZINC000931749147   -0.1100
23     C23    -0.6131   -2.0222    1.1640 C.ar     1 ZINC000931749147    0.0500
24     F24    -0.7768   -2.6880    2.3281 F        1 ZINC000931749147   -0.1300
25     C25    -0.1624   -0.7108    1.1736 C.ar     1 ZINC000931749147    0.0900
26     F26     0.1073   -0.0978    2.3469 F        1 ZINC000931749147   -0.1200
27     H27     1.5723    1.4157   -0.0618 H        1 ZINC000931749147    0.0800
28     H28     0.0700    1.9304   -0.8658 H        1 ZINC000931749147    0.0700
29     H29     0.1588    1.8881    0.9114 H        1 ZINC000931749147    0.0800
30     H30    -0.1196    1.0008   -2.4410 H        1 ZINC000931749147    0.4100
31     H31     0.2962    1.8726   -3.7507 H        1 ZINC000931749147    0.0800
32     H32     1.5493    1.6755   -5.0031 H        1 ZINC000931749147    0.0900
33     H33    -1.4570    1.9892   -5.4395 H        1 ZINC000931749147    0.0600
34     H34    -0.1814    3.1453   -5.8952 H        1 ZINC000931749147    0.1100
35     H35    -1.6427   -0.0779   -6.6625 H        1 ZINC000931749147    0.0600
36     H36    -0.4995   -0.3961   -7.9904 H        1 ZINC000931749147    0.1100
37     H37     0.5184   -2.6640   -5.1474 H        1 ZINC000931749147    0.1100
38     H38    -1.1620   -2.1325   -5.3962 H        1 ZINC000931749147    0.0700
39     H39    -0.7986   -2.2914   -7.8752 H        1 ZINC000931749147    0.0700
40     H40     1.6468   -1.9820   -7.8993 H        1 ZINC000931749147    0.0700
41     H41     1.8652   -3.5002   -6.9940 H        1 ZINC000931749147    0.0700
42     H42     0.6224   -3.2207   -9.7690 H        1 ZINC000931749147    0.0500
43     H43     2.2310   -3.8894   -9.4022 H        1 ZINC000931749147    0.0900
44     H44    -1.3387   -4.4715   -9.0672 H        1 ZINC000931749147    0.0500
45     H45    -1.0995   -6.0135   -8.2104 H        1 ZINC000931749147    0.0900
46     H46    -0.1891   -4.8104   -6.2589 H        1 ZINC000931749147    0.0700
47     H47    -1.8069   -4.1847   -6.6634 H        1 ZINC000931749147    0.0700
48     H48    -0.9398   -2.4650   -2.1655 H        1 ZINC000931749147    0.1800
49     H49    -1.2368   -3.6744   -0.0431 H        1 ZINC000931749147    0.1500
@<TRIPOS>BOND
1     1     2     1
2     1     27    1
3     1     28    1
4     1     29    1
5     2     25    ar
6     2     3     ar
7     3     4     1
8     3     21    ar
9     4     5     am
10    4     30    1
11    5     6     2
12    5     7     am
13    7     12    1
14    7     8     1
15    8     9     1
16    8     31    1
17    8     32    1
18    9     10    1
19    9     33    1
20    9     34    1
21    10    11    1
22    11    12    1
23    11    35    1
24    11    36    1
25    12    13    1
26    12    14    1
27    14    15    1
28    14    37    1
29    14    38    1
30    15    20    1
31    15    16    1
32    15    39    1
33    16    17    1
34    16    40    1
35    16    41    1
36    17    18    1
37    17    42    1
38    17    43    1
39    18    19    1
40    19    20    1
41    19    44    1
42    19    45    1
43    20    46    1
44    20    47    1
45    21    22    ar
46    21    48    1
47    22    23    ar
48    22    49    1
49    23    24    1
50    23    25    ar
51    25    26    1
@<TRIPOS>SUBSTRUCTURE
1   ZINC000931749147 1     RESIDUE    1   A     ZIN   1
@<TRIPOS>MOLECULE
ZINC000962730513
46	49	1	0	0
SMALL
USER_CHARGES
@<TRIPOS>ATOM
1      C1     -0.0187    1.5258    0.0104 C.3      1 ZINC000962730513   -0.1400
2      C2      0.0021   -0.0041    0.0020 C.3      1 ZINC000962730513   -0.0800
3      C3      0.7074   -0.4901   -1.2379 C.2      1 ZINC000962730513   -0.0100
4      C4      2.0638   -0.6329   -1.3234 C.2      1 ZINC000962730513   -0.2800
5      C5      3.0187   -0.3433   -0.2496 C.2      1 ZINC000962730513    0.6000
6      O6      2.6198    0.0604    0.8270 O.2      1 ZINC000962730513   -0.5200
7      N7      4.3384   -0.5242   -0.4546 N.am     1 ZINC000962730513   -0.7000
8      C8      5.2928   -0.2348    0.6186 C.3      1 ZINC000962730513    0.1200
9      H9      4.8537   -0.0327    1.5955 H        1 ZINC000962730513    0.1400
10     C10     6.5635    0.5309    0.2446 C.3      1 ZINC000962730513   -0.1700
11     H11     6.6917    0.8935   -0.7753 H        1 ZINC000962730513    0.1200
12     C12     7.3264    1.2671    1.3667 C.3      1 ZINC000962730513    0.0700
13     N13     8.2464    0.2443    1.9274 N.3      1 ZINC000962730513   -0.5000
14     C14     8.6750    0.6089    3.2844 C.3      1 ZINC000962730513    0.1100
15     C15     9.7858   -0.3096    3.7242 C.ar     1 ZINC000962730513    0.3200
16     N16     9.4823   -1.4306    4.3473 N.ar     1 ZINC000962730513   -0.5100
17     C17    10.4310   -2.2616    4.7482 C.ar     1 ZINC000962730513    0.1500
18     C18    11.7567   -1.9393    4.5046 C.ar     1 ZINC000962730513   -0.1900
19     C19    12.8675   -2.8580    4.9440 C.3      1 ZINC000962730513   -0.1100
20     C20    12.0363   -0.7518    3.8468 C.ar     1 ZINC000962730513    0.1500
21     N21    11.0346    0.0270    3.4709 N.ar     1 ZINC000962730513   -0.5000
22     C22     7.4402   -1.0035    1.9410 C.3      1 ZINC000962730513    0.0700
23     C23     6.6340   -0.9703    0.5867 C.3      1 ZINC000962730513   -0.1700
24     H24     6.8503   -1.7449   -0.1490 H        1 ZINC000962730513    0.1300
25     S25     2.4800   -1.2202   -2.9276 S.3      1 ZINC000962730513    0.1900
26     C26     0.8394   -1.2442   -3.3955 C.2      1 ZINC000962730513   -0.2200
27     C27     0.0500   -0.8394   -2.3935 C.2      1 ZINC000962730513   -0.1500
28     H28     1.0039    1.9031    0.0027 H        1 ZINC000962730513    0.0600
29     H29    -0.5459    1.8868   -0.8726 H        1 ZINC000962730513    0.0500
30     H30    -0.5289    1.8773    0.9072 H        1 ZINC000962730513    0.0600
31     H31     0.5293   -0.3651    0.8851 H        1 ZINC000962730513    0.1000
32     H32    -1.0205   -0.3814    0.0098 H        1 ZINC000962730513    0.0700
33     H33     4.6563   -0.8459   -1.3127 H        1 ZINC000962730513    0.4000
34     H34     7.8925    2.1033    0.9563 H        1 ZINC000962730513    0.0900
35     H35     6.6333    1.6155    2.1324 H        1 ZINC000962730513    0.0500
36     H36     9.0321    1.6388    3.2882 H        1 ZINC000962730513    0.1000
37     H37     7.8324    0.5140    3.9693 H        1 ZINC000962730513    0.0700
38     H38    10.1755   -3.1785    5.2585 H        1 ZINC000962730513    0.1700
39     H39    13.0883   -3.5681    4.1471 H        1 ZINC000962730513    0.0800
40     H40    13.7589   -2.2707    5.1646 H        1 ZINC000962730513    0.0700
41     H41    12.5588   -3.3996    5.8381 H        1 ZINC000962730513    0.0700
42     H42    13.0576   -0.4678    3.6404 H        1 ZINC000962730513    0.1700
43     H43     8.0919   -1.8769    1.9629 H        1 ZINC000962730513    0.0800
44     H44     6.7649   -1.0104    2.7965 H        1 ZINC000962730513    0.0600
45     H45     0.4849   -1.5493   -4.3689 H        1 ZINC000962730513    0.1700
46     H46    -1.0243   -0.7834   -2.4886 H        1 ZINC000962730513    0.1500
@<TRIPOS>BOND
1     1     2     1
2     1     28    1
3     1     29    1
4     1     30    1
5     2     3     1
6     2     31    1
7     2     32    1
8     3     27    1
9     3     4     2
10    4     5     1
11    4     25    1
12    5     6     2
13    5     7     am
14    7     8     1
15    7     33    1
16    8     9     1
17    8     23    1
18    8     10    1
19    10    11    1
20    10    23    1
21    10    12    1
22    12    13    1
23    12    34    1
24    12    35    1
25    13    14    1
26    13    22    1
27    14    15    1
28    14    36    1
29    14    37    1
30    15    21    ar
31    15    16    ar
32    16    17    ar
33    17    18    ar
34    17    38    1
35    18    19    1
36    18    20    ar
37    19    39    1
38    19    40    1
39    19    41    1
40    20    21    ar
41    20    42    1
42    22    23    1
43    22    43    1
44    22    44    1
45    23    24    1
46    25    26    1
47    26    27    2
48    26    45    1
49    27    46    1
@<TRIPOS>SUBSTRUCTURE
1   ZINC000962730513 1     RESIDUE    1   A     ZIN   1
@<TRIPOS>MOLECULE
ZINC000451500596
52	54	1	0	0
SMALL
USER_CHARGES
@<TRIPOS>ATOM
1      C1     -0.0225    1.8097    0.0120 C.3      1 ZINC000451500596   -0.6700
2      S2      0.0021   -0.0041    0.0020 S.o2     1 ZINC000451500596    2.6100
3      O3      0.8448   -0.4970    1.0346 O.2      1 ZINC000451500596   -0.9500
4      O4     -1.3093   -0.5195   -0.1821 O.2      1 ZINC000451500596   -0.9600
5      N5      0.7961   -0.3989   -1.3965 N.am     1 ZINC000451500596   -1.1200
6      C6      2.2072   -0.0423   -1.5633 C.3      1 ZINC000451500596    0.1200
7      C7      2.7954   -0.8247   -2.7393 C.3      1 ZINC000451500596   -0.1000
8      H8      2.1931   -0.6634   -3.6333 H        1 ZINC000451500596    0.0900
9      C9      2.8461   -2.3289   -2.4007 C.3      1 ZINC000451500596   -0.1200
10     C10     4.1651   -2.8196   -3.0477 C.3      1 ZINC000451500596   -0.1300
11     C11     5.1293   -1.6328   -2.8005 C.3      1 ZINC000451500596   -0.1300
12     C12     4.2466   -0.3812   -2.9943 C.3      1 ZINC000451500596    0.1400
13     H13     4.5319    0.3911   -2.2800 H        1 ZINC000451500596    0.1000
14     N14     4.3863    0.1244   -4.3622 N.am     1 ZINC000451500596   -0.7200
15     C15     5.3819    0.9806   -4.6657 C.2      1 ZINC000451500596    0.5300
16     O16     6.1622    1.3325   -3.8064 O.2      1 ZINC000451500596   -0.5300
17     C17     5.5257    1.5008   -6.0727 C.3      1 ZINC000451500596   -0.1300
18     H18     5.6687    0.6783   -6.7735 H        1 ZINC000451500596    0.1000
19     C19     4.2919    2.3527   -6.4713 C.3      1 ZINC000451500596   -0.1200
20     C20     4.8932    3.2894   -7.5486 C.3      1 ZINC000451500596    0.0500
21     N21     6.2565    3.5948   -7.0650 N.3      1 ZINC000451500596   -0.4900
22     C22     7.1447    3.7440   -8.1326 C.ar     1 ZINC000451500596    0.0800
23     C23     7.8255    4.9418   -8.3096 C.ar     1 ZINC000451500596   -0.0900
24     C24     8.7033    5.0858   -9.3660 C.ar     1 ZINC000451500596   -0.1100
25     C25     8.9045    4.0394  -10.2474 C.ar     1 ZINC000451500596   -0.1200
26     C26     8.2283    2.8456  -10.0742 C.ar     1 ZINC000451500596   -0.1100
27     C27     7.3534    2.6929   -9.0166 C.ar     1 ZINC000451500596   -0.1500
28     C28     6.6925    2.5064   -6.1662 C.3      1 ZINC000451500596    0.0600
29     H29     1.0001    2.1870    0.0043 H        1 ZINC000451500596    0.1300
30     H30    -0.5497    2.1708   -0.8711 H        1 ZINC000451500596    0.1300
31     H31    -0.5327    2.1613    0.9088 H        1 ZINC000451500596    0.1300
32     H32     0.3269   -0.8662   -2.1053 H        1 ZINC000451500596    0.4200
33     H33     2.2912    1.0265   -1.7598 H        1 ZINC000451500596    0.0700
34     H34     2.7542   -0.2885   -0.6532 H        1 ZINC000451500596    0.0900
35     H35     2.8730   -2.4762   -1.3210 H        1 ZINC000451500596    0.0800
36     H36     1.9918   -2.8470   -2.8362 H        1 ZINC000451500596    0.0700
37     H37     4.5266   -3.7206   -2.5521 H        1 ZINC000451500596    0.0700
38     H38     4.0307   -2.9922   -4.1155 H        1 ZINC000451500596    0.0700
39     H39     5.5248   -1.6677   -1.7854 H        1 ZINC000451500596    0.0800
40     H40     5.9410   -1.6430   -3.5278 H        1 ZINC000451500596    0.0700
41     H41     3.7623   -0.1570   -5.0494 H        1 ZINC000451500596    0.4000
42     H42     3.5051    1.7271   -6.8930 H        1 ZINC000451500596    0.0800
43     H43     3.9205    2.9239   -5.6205 H        1 ZINC000451500596    0.0800
44     H44     4.9372    2.7810   -8.5118 H        1 ZINC000451500596    0.0600
45     H45     4.3049    4.2036   -7.6277 H        1 ZINC000451500596    0.0900
46     H46     7.6684    5.7597   -7.6219 H        1 ZINC000451500596    0.1300
47     H47     9.2330    6.0168   -9.5041 H        1 ZINC000451500596    0.1300
48     H48     9.5909    4.1549  -11.0731 H        1 ZINC000451500596    0.1200
49     H49     8.3877    2.0304  -10.7644 H        1 ZINC000451500596    0.1200
50     H50     6.8258    1.7603   -8.8817 H        1 ZINC000451500596    0.1200
51     H51     6.9129    2.9081   -5.1772 H        1 ZINC000451500596    0.1000
52     H52     7.5768    2.0187   -6.5763 H        1 ZINC000451500596    0.0700
@<TRIPOS>BOND
1     1     2     1
2     1     29    1
3     1     30    1
4     1     31    1
5     2     3     2
6     2     4     2
7     2     5     am
8     5     6     1
9     5     32    1
10    6     7     1
11    6     33    1
12    6     34    1
13    7     8     1
14    7     12    1
15    7     9     1
16    9     10    1
17    9     35    1
18    9     36    1
19    10    11    1
20    10    37    1
21    10    38    1
22    11    12    1
23    11    39    1
24    11    40    1
25    12    13    1
26    12    14    1
27    14    15    am
28    14    41    1
29    15    16    2
30    15    17    1
31    17    18    1
32    17    28    1
33    17    19    1
34    19    20    1
35    19    42    1
36    19    43    1
37    20    21    1
38    20    44    1
39    20    45    1
40    21    22    1
41    21    28    1
42    22    27    ar
43    22    23    ar
44    23    24    ar
45    23    46    1
46    24    25    ar
47    24    47    1
48    25    26    ar
49    25    48    1
50    26    27    ar
51    26    49    1
52    27    50    1
53    28    51    1
54    28    52    1
@<TRIPOS>SUBSTRUCTURE
1   ZINC000451500596 1     RESIDUE    1   A     ZIN   1
@<TRIPOS>MOLECULE
ZINC000505965769
52	54	1	0	0
SMALL
USER_CHARGES
@<TRIPOS>ATOM
1      C1     -0.0173    1.4248    0.0099 C.3      1 ZINC000505965769    0.0200
2      O2      0.0021   -0.0041    0.0020 O.3      1 ZINC000505965769   -0.3100
3      C3      0.6247   -0.6173    1.0397 C.ar     1 ZINC000505965769    0.1800
4      C4      1.2014    0.1452    2.0500 C.ar     1 ZINC000505965769   -0.2200
5      C5      1.8299   -0.4634    3.0987 C.ar     1 ZINC000505965769   -0.0200
6      C6      1.8961   -1.8609    3.1605 C.ar     1 ZINC000505965769   -0.2100
7      C7      2.5705   -2.5173    4.2867 C.2      1 ZINC000505965769    0.3900
8      O8      2.6265   -3.7280    4.3379 O.2      1 ZINC000505965769   -0.4400
9      C9      3.1935   -1.6873    5.3794 C.3      1 ZINC000505965769   -0.1500
10     C10     3.8255   -2.6101    6.4234 C.3      1 ZINC000505965769   -0.1300
11     C11     4.4485   -1.7801    7.5161 C.2      1 ZINC000505965769    0.5200
12     O12     4.3925   -0.5697    7.4649 O.2      1 ZINC000505965769   -0.5300
13     N13     5.0678   -2.3830    8.5503 N.am     1 ZINC000505965769   -0.7200
14     C14     5.6734   -1.5761    9.6125 C.3      1 ZINC000505965769    0.1900
15     H15     5.0695   -0.6844    9.7807 H        1 ZINC000505965769    0.1100
16     C16     5.7391   -2.3851   10.8823 C.ar     1 ZINC000505965769   -0.1000
17     C17     6.0834   -3.7230   10.8318 C.ar     1 ZINC000505965769   -0.0900
18     C18     6.1440   -4.4658   11.9956 C.ar     1 ZINC000505965769   -0.1500
19     C19     5.8602   -3.8695   13.2125 C.ar     1 ZINC000505965769    0.1000
20     F20     5.9195   -4.5946   14.3509 F        1 ZINC000505965769   -0.1400
21     C21     5.5159   -2.5292   13.2619 C.ar     1 ZINC000505965769   -0.1500
22     C22     5.4607   -1.7872   12.0973 C.ar     1 ZINC000505965769   -0.0600
23     C23     7.0869   -1.1638    9.1968 C.3      1 ZINC000505965769    0.0800
24     H24     7.7063   -2.0464    9.0371 H        1 ZINC000505965769    0.0700
25     C25     7.0391   -0.3006    7.9109 C.3      1 ZINC000505965769   -0.1500
26     C26     8.3622    0.5016    8.0449 C.3      1 ZINC000505965769   -0.1600
27     C27     8.4752    0.6942    9.5725 C.3      1 ZINC000505965769    0.0500
28     O28     7.6740   -0.3171   10.1978 O.3      1 ZINC000505965769   -0.3700
29     C29     1.3151   -2.6306    2.1426 C.ar     1 ZINC000505965769    0.0500
30     Cl30    1.3911   -4.3636    2.2089 Cl       1 ZINC000505965769   -0.0200
31     C31     0.6790   -2.0056    1.0920 C.ar     1 ZINC000505965769   -0.1600
32     H32     1.0053    1.8021    0.0021 H        1 ZINC000505965769    0.0600
33     H33    -0.5445    1.7859   -0.8732 H        1 ZINC000505965769    0.1100
34     H34    -0.5275    1.7763    0.9067 H        1 ZINC000505965769    0.0600
35     H35     1.1522    1.2231    2.0048 H        1 ZINC000505965769    0.1400
36     H36     2.2764    0.1333    3.8804 H        1 ZINC000505965769    0.1500
37     H37     3.9613   -1.0420    4.9526 H        1 ZINC000505965769    0.1100
38     H38     2.4261   -1.0749    5.8528 H        1 ZINC000505965769    0.1100
39     H39     3.0577   -3.2555    6.8502 H        1 ZINC000505965769    0.1000
40     H40     4.5929   -3.2226    5.9500 H        1 ZINC000505965769    0.1000
41     H41     5.1125   -3.3511    8.5912 H        1 ZINC000505965769    0.4000
42     H42     6.3047   -4.1880    9.8825 H        1 ZINC000505965769    0.1300
43     H43     6.4123   -5.5112   11.9559 H        1 ZINC000505965769    0.1400
44     H44     5.2940   -2.0631   14.2105 H        1 ZINC000505965769    0.1400
45     H45     5.1925   -0.7417   12.1356 H        1 ZINC000505965769    0.1400
46     H46     7.0472   -0.9254    7.0178 H        1 ZINC000505965769    0.0700
47     H47     6.1748    0.3636    7.9156 H        1 ZINC000505965769    0.1000
48     H48     9.2053   -0.0742    7.6631 H        1 ZINC000505965769    0.0700
49     H49     8.2860    1.4631    7.5373 H        1 ZINC000505965769    0.0800
50     H50     9.5144    0.5852    9.8830 H        1 ZINC000505965769    0.0700
51     H51     8.1072    1.6823    9.8488 H        1 ZINC000505965769    0.0700
52     H52     0.2296   -2.5938    0.3056 H        1 ZINC000505965769    0.1500
@<TRIPOS>BOND
1     1     2     1
2     1     32    1
3     1     33    1
4     1     34    1
5     2     3     1
6     3     31    ar
7     3     4     ar
8     4     5     ar
9     4     35    1
10    5     6     ar
11    5     36    1
12    6     7     1
13    6     29    ar
14    7     8     2
15    7     9     1
16    9     10    1
17    9     37    1
18    9     38    1
19    10    11    1
20    10    39    1
21    10    40    1
22    11    12    2
23    11    13    am
24    13    14    1
25    13    41    1
26    14    15    1
27    14    16    1
28    14    23    1
29    16    22    ar
30    16    17    ar
31    17    18    ar
32    17    42    1
33    18    19    ar
34    18    43    1
35    19    20    1
36    19    21    ar
37    21    22    ar
38    21    44    1
39    22    45    1
40    23    24    1
41    23    28    1
42    23    25    1
43    25    26    1
44    25    46    1
45    25    47    1
46    26    27    1
47    26    48    1
48    26    49    1
49    27    28    1
50    27    50    1
51    27    51    1
52    29    30    1
53    29    31    ar
54    31    52    1
@<TRIPOS>SUBSTRUCTURE
1   ZINC000505965769 1     RESIDUE    1   A     ZIN   1
@<TRIPOS>MOLECULE
ZINC000435292384
52	53	1	0	0
SMALL
USER_CHARGES
@<TRIPOS>ATOM
1      C1      0.2557    1.8005    0.4580 C.3      1 ZINC000435292384   -0.1500
2      C2      0.4818    0.2986    0.2739 C.3      1 ZINC000435292384   -0.1200
3      C3     -0.8022   -0.3504   -0.2468 C.3      1 ZINC000435292384   -0.1400
4      C4     -0.5761   -1.8524   -0.4309 C.3      1 ZINC000435292384    0.1600
5      H5      0.2858   -2.0133   -1.0785 H        1 ZINC000435292384    0.0900
6      C6     -1.8171   -2.4806   -1.0681 C.3      1 ZINC000435292384   -0.1700
7      N7     -0.3297   -2.4726    0.8733 N.am     1 ZINC000435292384   -0.6100
8      C8      0.9003   -3.1894    1.2302 C.3      1 ZINC000435292384    0.1200
9      C9      0.8954   -3.2734    2.7727 C.3      1 ZINC000435292384   -0.1300
10     H10     1.4365   -2.4347    3.2107 H        1 ZINC000435292384    0.1100
11     C11     1.4679   -4.5857    3.2431 C.2      1 ZINC000435292384    0.5200
12     O12     1.4114   -5.5632    2.5275 O.2      1 ZINC000435292384   -0.5200
13     N13     2.0425   -4.6730    4.4591 N.am     1 ZINC000435292384   -0.6000
14     C14     1.9867   -3.5004    5.3539 C.3      1 ZINC000435292384    0.1000
15     C15     1.6758   -3.8952    6.8090 C.3      1 ZINC000435292384   -0.1300
16     C16     0.6248   -4.9774    6.8393 C.3      1 ZINC000435292384   -0.1100
17     C17     1.3052   -6.3429    6.8451 C.3      1 ZINC000435292384   -0.1200
18     C18     1.6582   -6.8497    5.5101 C.3      1 ZINC000435292384   -0.0700
19     H19     0.7597   -6.9028    4.8952 H        1 ZINC000435292384    0.0900
20     S20     2.3764   -8.5080    5.6680 S.3      1 ZINC000435292384   -0.2500
21     C21     0.9924   -9.4932    6.3040 C.3      1 ZINC000435292384   -0.1200
22     C22     2.6830   -5.9133    4.8355 C.3      1 ZINC000435292384    0.1400
23     C23    -0.6155   -3.1828    3.0887 C.3      1 ZINC000435292384   -0.1400
24     C24    -1.1987   -2.4533    1.8986 C.2      1 ZINC000435292384    0.5200
25     O25    -2.2939   -1.9331    1.8712 O.2      1 ZINC000435292384   -0.5200
26     H26     1.1704    2.2629    0.8290 H        1 ZINC000435292384    0.0500
27     H27    -0.0150    2.2472   -0.4987 H        1 ZINC000435292384    0.0500
28     H28    -0.5494    1.9616    1.1750 H        1 ZINC000435292384    0.0500
29     H29     1.2869    0.1375   -0.4430 H        1 ZINC000435292384    0.0600
30     H30     0.7525   -0.1481    1.2307 H        1 ZINC000435292384    0.0600
31     H31    -1.6073   -0.1894    0.4701 H        1 ZINC000435292384    0.0800
32     H32    -1.0729    0.0962   -1.2035 H        1 ZINC000435292384    0.0800
33     H33    -2.6790   -2.3196   -0.4205 H        1 ZINC000435292384    0.0700
34     H34    -2.0005   -2.0191   -2.0384 H        1 ZINC000435292384    0.0700
35     H35    -1.6561   -3.5506   -1.1992 H        1 ZINC000435292384    0.0600
36     H36     0.8926   -4.1900    0.7979 H        1 ZINC000435292384    0.0900
37     H37     1.7733   -2.6354    0.8853 H        1 ZINC000435292384    0.0800
38     H38     2.9475   -2.9865    5.3242 H        1 ZINC000435292384    0.0700
39     H39     1.2124   -2.8205    4.9985 H        1 ZINC000435292384    0.0900
40     H40     2.5849   -4.2607    7.2866 H        1 ZINC000435292384    0.0700
41     H41     1.3113   -3.0221    7.3504 H        1 ZINC000435292384    0.0800
42     H42     0.0177   -4.8697    7.7382 H        1 ZINC000435292384    0.0700
43     H43    -0.0110   -4.8916    5.9581 H        1 ZINC000435292384    0.0600
44     H44     2.2155   -6.2735    7.4407 H        1 ZINC000435292384    0.0800
45     H45     0.6375   -7.0603    7.3222 H        1 ZINC000435292384    0.0600
46     H46     0.6655   -9.0855    7.2605 H        1 ZINC000435292384    0.0800
47     H47     0.1663   -9.4604    5.5936 H        1 ZINC000435292384    0.0800
48     H48     1.3138  -10.5259    6.4400 H        1 ZINC000435292384    0.1000
49     H49     3.0850   -6.3964    3.9450 H        1 ZINC000435292384    0.0900
50     H50     3.4951   -5.7025    5.5314 H        1 ZINC000435292384    0.0900
51     H51    -1.0469   -4.1798    3.1787 H        1 ZINC000435292384    0.1100
52     H52    -0.7807   -2.6108    4.0017 H        1 ZINC000435292384    0.1100
@<TRIPOS>BOND
1     1     2     1
2     1     26    1
3     1     27    1
4     1     28    1
5     2     3     1
6     2     29    1
7     2     30    1
8     3     4     1
9     3     31    1
10    3     32    1
11    4     5     1
12    4     6     1
13    4     7     1
14    6     33    1
15    6     34    1
16    6     35    1
17    7     24    am
18    7     8     1
19    8     9     1
20    8     36    1
21    8     37    1
22    9     10    1
23    9     11    1
24    9     23    1
25    11    12    2
26    11    13    am
27    13    22    1
28    13    14    1
29    14    15    1
30    14    38    1
31    14    39    1
32    15    16    1
33    15    40    1
34    15    41    1
35    16    17    1
36    16    42    1
37    16    43    1
38    17    18    1
39    17    44    1
40    17    45    1
41    18    19    1
42    18    20    1
43    18    22    1
44    20    21    1
45    21    46    1
46    21    47    1
47    21    48    1
48    22    49    1
49    22    50    1
50    23    24    1
51    23    51    1
52    23    52    1
53    24    25    2
@<TRIPOS>SUBSTRUCTURE
1   ZINC000435292384 1     RESIDUE    1   A     ZIN   1
@<TRIPOS>MOLECULE
ZINC000151820600
50	50	1	0	0
SMALL
USER_CHARGES
@<TRIPOS>ATOM
1      C1     -0.0225    1.8097    0.0120 C.3      1 ZINC000151820600   -0.4900
2      S2      0.0021   -0.0041    0.0020 S.o      1 ZINC000151820600    1.2500
3      O3      0.7607   -0.4736    1.1081 O.2      1 ZINC000151820600   -0.8500
4      C4      0.8766   -0.3918   -1.5392 C.3      1 ZINC000151820600   -0.4500
5      C5      0.9820   -1.9099   -1.6977 C.3      1 ZINC000151820600   -0.1100
6      C6      1.7197   -2.2370   -2.9977 C.3      1 ZINC000151820600    0.1200
7      N7      1.8206   -3.6906   -3.1494 N.am     1 ZINC000151820600   -0.7200
8      C8      2.4354   -4.2145   -4.2283 C.2      1 ZINC000151820600    0.5200
9      O9      2.9052   -3.4824   -5.0736 O.2      1 ZINC000151820600   -0.5200
10     C10     2.5392   -5.7097   -4.3844 C.3      1 ZINC000151820600    0.1900
11     H11     1.5391   -6.1421   -4.4155 H        1 ZINC000151820600    0.1300
12     N12     3.2455   -6.0229   -5.6292 N.am     1 ZINC000151820600   -0.6900
13     C13     3.0379   -7.2048   -6.2428 C.2      1 ZINC000151820600    0.6600
14     O14     2.2649   -8.0106   -5.7636 O.2      1 ZINC000151820600   -0.5600
15     O15     3.6870   -7.4926   -7.3867 O.3      1 ZINC000151820600   -0.3600
16     C16     3.4146   -8.7839   -7.9922 C.3      1 ZINC000151820600    0.1400
17     C17     1.9253   -8.8858   -8.3278 C.3      1 ZINC000151820600   -0.1800
18     C18     4.2373   -8.9299   -9.2739 C.3      1 ZINC000151820600   -0.1400
19     C19     3.7940   -9.8966   -7.0131 C.3      1 ZINC000151820600   -0.1800
20     C20     3.2992   -6.2851   -3.2172 C.ar     1 ZINC000151820600   -0.1000
21     C21     4.6797   -6.2211   -3.1924 C.ar     1 ZINC000151820600   -0.0900
22     C22     5.3776   -6.7483   -2.1216 C.ar     1 ZINC000151820600   -0.1000
23     C23     4.6953   -7.3401   -1.0757 C.ar     1 ZINC000151820600   -0.1000
24     C24     3.3132   -7.4045   -1.1000 C.ar     1 ZINC000151820600   -0.0300
25     Cl25    2.4553   -8.1473    0.2138 Cl       1 ZINC000151820600   -0.0600
26     C26     2.6153   -6.8718   -2.1689 C.ar     1 ZINC000151820600   -0.0900
27     H27     1.0001    2.1870    0.0043 H        1 ZINC000151820600    0.0800
28     H28    -0.5497    2.1708   -0.8711 H        1 ZINC000151820600    0.1100
29     H29    -0.5327    2.1613    0.9088 H        1 ZINC000151820600    0.1100
30     H30     0.3269    0.0243   -2.3835 H        1 ZINC000151820600    0.1200
31     H31     1.8767    0.0405   -1.5081 H        1 ZINC000151820600    0.0900
32     H32     1.5317   -2.3261   -0.8535 H        1 ZINC000151820600    0.0800
33     H33    -0.0181   -2.3423   -1.7288 H        1 ZINC000151820600    0.0900
34     H34     1.1700   -1.8208   -3.8419 H        1 ZINC000151820600    0.0800
35     H35     2.7198   -1.8046   -2.9666 H        1 ZINC000151820600    0.0700
36     H36     1.4449   -4.2761   -2.4734 H        1 ZINC000151820600    0.4000
37     H37     3.8626   -5.3796   -6.0117 H        1 ZINC000151820600    0.4200
38     H38     1.6550   -8.0930   -9.0254 H        1 ZINC000151820600    0.0600
39     H39     1.7208   -9.8551   -8.7824 H        1 ZINC000151820600    0.0700
40     H40     1.3392   -8.7818   -7.4147 H        1 ZINC000151820600    0.0900
41     H41     5.2983   -8.8573   -9.0349 H        1 ZINC000151820600    0.0700
42     H42     4.0328   -9.8992   -9.7285 H        1 ZINC000151820600    0.0800
43     H43     3.9670   -8.1371   -9.9715 H        1 ZINC000151820600    0.0700
44     H44     3.2079   -9.7926   -6.1000 H        1 ZINC000151820600    0.0900
45     H45     3.5895  -10.8659   -7.4677 H        1 ZINC000151820600    0.0700
46     H46     4.8550   -9.8240   -6.7740 H        1 ZINC000151820600    0.0600
47     H47     5.2134   -5.7593   -4.0099 H        1 ZINC000151820600    0.1300
48     H48     6.4563   -6.6980   -2.1027 H        1 ZINC000151820600    0.1400
49     H49     5.2406   -7.7526   -0.2397 H        1 ZINC000151820600    0.1400
50     H50     1.5366   -6.9217   -2.1884 H        1 ZINC000151820600    0.1400
@<TRIPOS>BOND
1     1     2     1
2     1     27    1
3     1     28    1
4     1     29    1
5     2     3     2
6     2     4     1
7     4     5     1
8     4     30    1
9     4     31    1
10    5     6     1
11    5     32    1
12    5     33    1
13    6     7     1
14    6     34    1
15    6     35    1
16    7     8     am
17    7     36    1
18    8     9     2
19    8     10    1
20    10    11    1
21    10    12    1
22    10    20    1
23    12    13    am
24    12    37    1
25    13    14    2
26    13    15    1
27    15    16    1
28    16    17    1
29    16    18    1
30    16    19    1
31    17    38    1
32    17    39    1
33    17    40    1
34    18    41    1
35    18    42    1
36    18    43    1
37    19    44    1
38    19    45    1
39    19    46    1
40    20    26    ar
41    20    21    ar
42    21    22    ar
43    21    47    1
44    22    23    ar
45    22    48    1
46    23    24    ar
47    23    49    1
48    24    25    1
49    24    26    ar
50    26    50    1
@<TRIPOS>SUBSTRUCTURE
1   ZINC000151820600 1     RESIDUE    1   A     ZIN   1
@<TRIPOS>MOLECULE
ZINC000010935976
51	54	1	0	0
SMALL
USER_CHARGES
@<TRIPOS>ATOM
1      C1     -0.0152    1.5004   -0.1628 C.3      1 ZINC000010935976   -0.0800
2      C2      0.0042   -0.0056   -0.1125 C.2      1 ZINC000010935976   -0.2100
3      C3     -1.0740   -0.7646   -0.1338 C.2      1 ZINC000010935976   -0.0400
4      C4     -2.4668   -0.1944   -0.2127 C.3      1 ZINC000010935976   -0.1000
5      C5     -0.8157   -2.1914   -0.0758 C.2      1 ZINC000010935976   -0.2300
6      C6      0.5466   -2.4748   -0.0081 C.2      1 ZINC000010935976    0.0900
7      N7      0.9593   -3.7565    0.0518 N.2      1 ZINC000010935976   -0.4900
8      C8      0.1073   -4.7534    0.0480 C.2      1 ZINC000010935976    0.3400
9      S9      0.7158   -6.4050    0.1290 S.3      1 ZINC000010935976    0.0500
10     C10     2.4954   -6.0815    0.1951 C.3      1 ZINC000010935976   -0.1000
11     H11     2.7873   -5.4648   -0.6550 H        1 ZINC000010935976    0.1400
12     C12     3.2608   -7.4064    0.1562 C.3      1 ZINC000010935976   -0.1000
13     C13     2.4974   -8.4902    0.8956 C.3      1 ZINC000010935976   -0.1300
14     C14     2.3929   -8.2545    2.3913 C.3      1 ZINC000010935976   -0.1400
15     C15     1.5245   -7.0312    2.6911 C.3      1 ZINC000010935976    0.0700
16     N16     2.3733   -5.8294    2.6499 N.am     1 ZINC000010935976   -0.7200
17     C17     2.8345   -5.3637    1.4846 C.2      1 ZINC000010935976    0.5400
18     O18     3.5289   -4.3696    1.4632 O.2      1 ZINC000010935976   -0.5200
19     N19    -1.2396   -4.5422   -0.0167 N.am     1 ZINC000010935976   -0.5100
20     C20    -2.1577   -5.6838   -0.0180 C.3      1 ZINC000010935976    0.1200
21     C21    -3.0100   -5.6780    1.2679 C.3      1 ZINC000010935976   -0.1300
22     C22    -4.3220   -4.9684    0.8507 C.3      1 ZINC000010935976   -0.1300
23     C23    -4.5548   -5.4975   -0.5863 C.3      1 ZINC000010935976   -0.1100
24     C24    -3.1399   -5.5690   -1.1969 C.3      1 ZINC000010935976   -0.1200
25     C25    -1.7285   -3.2884   -0.0784 C.2      1 ZINC000010935976    0.5600
26     O26    -2.9306   -3.0941   -0.1367 O.2      1 ZINC000010935976   -0.5000
27     S27     1.4634   -0.9737   -0.0257 S.3      1 ZINC000010935976    0.2100
28     H28     1.0070    1.8780   -0.1363 H        1 ZINC000010935976    0.0700
29     H29    -0.4994    1.8270   -1.0831 H        1 ZINC000010935976    0.0800
30     H30    -0.5671    1.8855    0.6946 H        1 ZINC000010935976    0.0800
31     H31    -2.7582   -0.0905   -1.2579 H        1 ZINC000010935976    0.0700
32     H32    -3.1625   -0.8634    0.2937 H        1 ZINC000010935976    0.0800
33     H33    -2.4869    0.7832    0.2690 H        1 ZINC000010935976    0.0700
34     H34     3.4004   -7.7099   -0.8814 H        1 ZINC000010935976    0.0900
35     H35     4.2360   -7.2714    0.6241 H        1 ZINC000010935976    0.0900
36     H36     1.4909   -8.5508    0.4817 H        1 ZINC000010935976    0.0700
37     H37     2.9974   -9.4441    0.7278 H        1 ZINC000010935976    0.0800
38     H38     1.9505   -9.1322    2.8624 H        1 ZINC000010935976    0.0800
39     H39     3.3908   -8.0943    2.7994 H        1 ZINC000010935976    0.0700
40     H40     0.7373   -6.9489    1.9416 H        1 ZINC000010935976    0.1100
41     H41     1.0806   -7.1317    3.6816 H        1 ZINC000010935976    0.0900
42     H42     2.5982   -5.3698    3.4740 H        1 ZINC000010935976    0.4000
43     H43    -1.5953   -6.6148   -0.0898 H        1 ZINC000010935976    0.1000
44     H44    -3.2149   -6.6976    1.5943 H        1 ZINC000010935976    0.0800
45     H45    -2.5073   -5.1178    2.0562 H        1 ZINC000010935976    0.0700
46     H46    -5.1431   -5.2579    1.5066 H        1 ZINC000010935976    0.0600
47     H47    -4.1918   -3.8863    0.8475 H        1 ZINC000010935976    0.1100
48     H48    -5.0091   -6.4879   -0.5593 H        1 ZINC000010935976    0.0600
49     H49    -5.1794   -4.8055   -1.1511 H        1 ZINC000010935976    0.0700
50     H50    -2.9335   -4.6639   -1.7680 H        1 ZINC000010935976    0.0800
51     H51    -3.0547   -6.4447   -1.8404 H        1 ZINC000010935976    0.0700
@<TRIPOS>BOND
1     1     2     1
2     1     28    1
3     1     29    1
4     1     30    1
5     2     27    1
6     2     3     2
7     3     4     1
8     3     5     1
9     4     31    1
10    4     32    1
11    4     33    1
12    5     25    1
13    5     6     2
14    6     7     1
15    6     27    1
16    7     8     2
17    8     9     1
18    8     19    1
19    9     10    1
20    10    11    1
21    10    17    1
22    10    12    1
23    12    13    1
24    12    34    1
25    12    35    1
26    13    14    1
27    13    36    1
28    13    37    1
29    14    15    1
30    14    38    1
31    14    39    1
32    15    16    1
33    15    40    1
34    15    41    1
35    16    17    am
36    16    42    1
37    17    18    2
38    19    20    1
39    19    25    am
40    20    24    1
41    20    21    1
42    20    43    1
43    21    22    1
44    21    44    1
45    21    45    1
46    22    23    1
47    22    46    1
48    22    47    1
49    23    24    1
50    23    48    1
51    23    49    1
52    24    50    1
53    24    51    1
54    25    26    2
@<TRIPOS>SUBSTRUCTURE
1   ZINC000010935976 1     RESIDUE    1   A     ZIN   1
@<TRIPOS>MOLECULE
ZINC000477669194
43	45	1	0	0
SMALL
USER_CHARGES
@<TRIPOS>ATOM
1      C1     -0.6374    1.3009   -1.9483 C.3      1 ZINC000477669194   -0.0800
2      C2     -0.5789   -0.1934   -1.7617 C.2      1 ZINC000477669194    0.0500
3      N3     -1.4748   -0.8935   -1.1564 N.2      1 ZINC000477669194   -0.4900
4      C4     -1.2704   -2.2006   -1.0800 C.2      1 ZINC000477669194    0.1200
5      C5     -2.2168   -3.1278   -0.4136 C.ar     1 ZINC000477669194   -0.0600
6      C6     -2.0102   -4.5033   -0.4774 C.ar     1 ZINC000477669194   -0.0800
7      C7     -2.8942   -5.3626    0.1446 C.ar     1 ZINC000477669194   -0.1400
8      C8     -3.9858   -4.8627    0.8320 C.ar     1 ZINC000477669194   -0.0900
9      C9     -4.2016   -3.4992    0.9020 C.ar     1 ZINC000477669194   -0.1300
10     C10    -3.3188   -2.6240    0.2874 C.ar     1 ZINC000477669194    0.1800
11     N11    -3.5351   -1.2450    0.3575 N.am     1 ZINC000477669194   -0.6500
12     C12    -4.7889   -0.7646    0.4736 C.2      1 ZINC000477669194    0.5600
13     O13    -5.7238   -1.5309    0.6067 O.2      1 ZINC000477669194   -0.5200
14     C14    -5.0273    0.6905    0.4393 C.ar     1 ZINC000477669194   -0.1500
15     C15    -3.9542    1.5725    0.2805 C.ar     1 ZINC000477669194   -0.0600
16     C16    -4.1799    2.9296    0.2484 C.ar     1 ZINC000477669194   -0.1400
17     C17    -5.4751    3.4245    0.3738 C.ar     1 ZINC000477669194    0.1700
18     N18    -5.6998    4.7964    0.3410 N.am     1 ZINC000477669194   -1.0600
19     S19    -6.9264    5.4125   -0.5854 S.o2     1 ZINC000477669194    2.6100
20     C20    -6.4972    4.9334   -2.2815 C.3      1 ZINC000477669194   -0.6700
21     O21    -8.0825    4.7123   -0.1468 O.2      1 ZINC000477669194   -0.9400
22     O22    -6.8162    6.8198   -0.4217 O.2      1 ZINC000477669194   -0.9500
23     C23    -6.5458    2.5488    0.5316 C.ar     1 ZINC000477669194   -0.1600
24     C24    -6.3273    1.1905    0.5596 C.ar     1 ZINC000477669194   -0.0300
25     C25    -0.1261   -2.6133   -1.6620 C.2      1 ZINC000477669194   -0.2600
26     S26     0.6820   -1.1975   -2.3301 S.3      1 ZINC000477669194    0.1500
27     H27     0.2437    1.6333   -2.4971 H        1 ZINC000477669194    0.0800
28     H28    -1.5348    1.5621   -2.5091 H        1 ZINC000477669194    0.0900
29     H29    -0.6635    1.7880   -0.9735 H        1 ZINC000477669194    0.0900
30     H30    -1.1596   -4.8978   -1.0133 H        1 ZINC000477669194    0.1300
31     H31    -2.7330   -6.4293    0.0940 H        1 ZINC000477669194    0.1300
32     H32    -4.6728   -5.5410    1.3160 H        1 ZINC000477669194    0.1300
33     H33    -5.0559   -3.1150    1.4395 H        1 ZINC000477669194    0.1500
34     H34    -2.7828   -0.6337    0.3225 H        1 ZINC000477669194    0.4200
35     H35    -2.9492    1.1893    0.1835 H        1 ZINC000477669194    0.1300
36     H36    -3.3514    3.6115    0.1262 H        1 ZINC000477669194    0.1400
37     H37    -5.1381    5.3924    0.8607 H        1 ZINC000477669194    0.4300
38     H38    -6.5297    3.8476   -2.3716 H        1 ZINC000477669194    0.1300
39     H39    -7.2106    5.3771   -2.9760 H        1 ZINC000477669194    0.1400
40     H40    -5.4934    5.2876   -2.5161 H        1 ZINC000477669194    0.1300
41     H41    -7.5495    2.9358    0.6282 H        1 ZINC000477669194    0.1700
42     H42    -7.1584    0.5117    0.6817 H        1 ZINC000477669194    0.1500
43     H43     0.2299   -3.6316   -1.7130 H        1 ZINC000477669194    0.1800
@<TRIPOS>BOND
1     1     2     1
2     1     27    1
3     1     28    1
4     1     29    1
5     2     26    1
6     2     3     2
7     3     4     1
8     4     5     1
9     4     25    2
10    5     10    ar
11    5     6     ar
12    6     7     ar
13    6     30    1
14    7     8     ar
15    7     31    1
16    8     9     ar
17    8     32    1
18    9     10    ar
19    9     33    1
20    10    11    1
21    11    12    am
22    11    34    1
23    12    13    2
24    12    14    1
25    14    24    ar
26    14    15    ar
27    15    16    ar
28    15    35    1
29    16    17    ar
30    16    36    1
31    17    18    1
32    17    23    ar
33    18    19    am
34    18    37    1
35    19    20    1
36    19    21    2
37    19    22    2
38    20    38    1
39    20    39    1
40    20    40    1
41    23    24    ar
42    23    41    1
43    24    42    1
44    25    26    1
45    25    43    1
@<TRIPOS>SUBSTRUCTURE
1   ZINC000477669194 1     RESIDUE    1   A     ZIN   1
@<TRIPOS>MOLECULE
ZINC000444205493
47	49	1	0	0
SMALL
USER_CHARGES
@<TRIPOS>ATOM
1      C1     -0.1680    1.5033   -0.5523 C.3      1 ZINC000444205493   -0.1700
2      C2     -0.1538   -0.0035   -0.5702 C.2      1 ZINC000444205493    0.5100
3      O3      0.7593   -0.5950   -1.1063 O.2      1 ZINC000444205493   -0.5100
4      N4     -1.1558   -0.6938    0.0094 N.am     1 ZINC000444205493   -0.6800
5      C5     -1.1921   -2.0895   -0.0884 C.ar     1 ZINC000444205493    0.2300
6      C6     -0.0102   -2.8176   -0.0921 C.ar     1 ZINC000444205493   -0.1400
7      C7     -0.0493   -4.1952   -0.1882 C.ar     1 ZINC000444205493    0.0200
8      C8     -1.2638   -4.8493   -0.2812 C.ar     1 ZINC000444205493   -0.6900
9      S9     -1.3087   -6.6064   -0.4042 S.o2     1 ZINC000444205493    2.7100
10     O10    -2.5459   -6.9340   -1.0216 O.2      1 ZINC000444205493   -0.9500
11     O11    -0.0491   -7.0043   -0.9282 O.2      1 ZINC000444205493   -0.9500
12     N12    -1.3832   -7.2041    1.1384 N.am     1 ZINC000444205493   -1.0100
13     C13    -0.2248   -7.5422    1.9869 C.3      1 ZINC000444205493    0.1200
14     C14    -0.7538   -7.4495    3.4419 C.3      1 ZINC000444205493   -0.1200
15     C15    -2.1923   -7.9776    3.2793 C.3      1 ZINC000444205493   -0.0700
16     C16    -2.2252   -9.5071    3.3642 C.3      1 ZINC000444205493   -0.1100
17     C17    -2.6612   -9.7904    4.8258 C.3      1 ZINC000444205493   -0.1200
18     C18    -3.6877   -8.6632    5.1050 C.3      1 ZINC000444205493   -0.1000
19     H19    -4.6628   -8.9250    4.6942 H        1 ZINC000444205493    0.0700
20     C20    -3.7952   -8.3972    6.6078 C.3      1 ZINC000444205493   -0.1500
21     C21    -3.1066   -7.4310    4.3751 C.3      1 ZINC000444205493   -0.1100
22     C22    -2.6172   -7.4803    1.8937 C.3      1 ZINC000444205493    0.1300
23     C23    -2.4435   -4.1276   -0.2774 C.ar     1 ZINC000444205493    0.0300
24     C24    -2.4117   -2.7500   -0.1762 C.ar     1 ZINC000444205493   -0.1500
25     Br25   -4.0251   -1.7636   -0.1711 Br       1 ZINC000444205493   -0.0300
26     H26     0.7164    1.8811   -1.0653 H        1 ZINC000444205493    0.1000
27     H27    -1.0635    1.8643   -1.0582 H        1 ZINC000444205493    0.1000
28     H28    -0.1672    1.8544    0.4796 H        1 ZINC000444205493    0.1000
29     H29    -1.8518   -0.2233    0.4943 H        1 ZINC000444205493    0.4200
30     H30     0.9391   -2.3075   -0.0202 H        1 ZINC000444205493    0.1600
31     H31     0.8701   -4.7619   -0.1911 H        1 ZINC000444205493    0.1500
32     H32     0.1195   -8.5540    1.7725 H        1 ZINC000444205493    0.0800
33     H33     0.5815   -6.8256    1.8304 H        1 ZINC000444205493    0.0800
34     H34    -0.1758   -8.0885    4.1096 H        1 ZINC000444205493    0.0900
35     H35    -0.7534   -6.4177    3.7932 H        1 ZINC000444205493    0.0800
36     H36    -2.9534   -9.9135    2.6623 H        1 ZINC000444205493    0.0700
37     H37    -1.2356   -9.9221    3.1731 H        1 ZINC000444205493    0.0700
38     H38    -3.1328  -10.7699    4.9048 H        1 ZINC000444205493    0.0700
39     H39    -1.8110   -9.7145    5.5036 H        1 ZINC000444205493    0.0700
40     H40    -2.8165   -8.1186    6.9984 H        1 ZINC000444205493    0.0500
41     H41    -4.5011   -7.5855    6.7836 H        1 ZINC000444205493    0.0500
42     H42    -4.1447   -9.2981    7.1122 H        1 ZINC000444205493    0.0500
43     H43    -2.5330   -6.8190    5.0712 H        1 ZINC000444205493    0.0700
44     H44    -3.9111   -6.8431    3.9333 H        1 ZINC000444205493    0.0700
45     H45    -3.2117   -6.5719    1.9907 H        1 ZINC000444205493    0.0700
46     H46    -3.1950   -8.2507    1.3830 H        1 ZINC000444205493    0.0800
47     H47    -3.3906   -4.6415   -0.3498 H        1 ZINC000444205493    0.1500
@<TRIPOS>BOND
1     1     2     1
2     1     26    1
3     1     27    1
4     1     28    1
5     2     3     2
6     2     4     am
7     4     5     1
8     4     29    1
9     5     24    ar
10    5     6     ar
11    6     7     ar
12    6     30    1
13    7     8     ar
14    7     31    1
15    8     9     1
16    8     23    ar
17    9     10    2
18    9     11    2
19    9     12    am
20    12    22    1
21    12    13    1
22    13    14    1
23    13    32    1
24    13    33    1
25    14    15    1
26    14    34    1
27    14    35    1
28    15    21    1
29    15    16    1
30    15    22    1
31    16    17    1
32    16    36    1
33    16    37    1
34    17    18    1
35    17    38    1
36    17    39    1
37    18    19    1
38    18    20    1
39    18    21    1
40    20    40    1
41    20    41    1
42    20    42    1
43    21    43    1
44    21    44    1
45    22    45    1
46    22    46    1
47    23    24    ar
48    23    47    1
49    24    25    1
@<TRIPOS>SUBSTRUCTURE
1   ZINC000444205493 1     RESIDUE    1   A     ZIN   1
@<TRIPOS>MOLECULE
ZINC000751548479
43	44	1	0	0
SMALL
USER_CHARGES
@<TRIPOS>ATOM
1      C1     -0.8198    1.5465    0.8063 C.3      1 ZINC000751548479   -0.1600
2      C2     -0.8766    0.0193    0.8809 C.3      1 ZINC000751548479    0.0800
3      O3      0.2902   -0.4743    1.5902 O.3      1 ZINC000751548479   -0.3600
4      C4      0.3933   -1.8081    1.7437 C.2      1 ZINC000751548479    0.6500
5      O5     -0.4682   -2.5394    1.2971 O.2      1 ZINC000751548479   -0.5400
6      N6      1.4520   -2.3318    2.3927 N.am     1 ZINC000751548479   -0.6500
7      C7      1.5129   -3.7058    2.6346 C.ar     1 ZINC000751548479    0.2000
8      C8      0.9944   -4.5987    1.7080 C.ar     1 ZINC000751548479   -0.1000
9      C9      1.0538   -5.9573    1.9456 C.ar     1 ZINC000751548479   -0.1000
10     C10     1.6328   -6.4415    3.1137 C.ar     1 ZINC000751548479    0.1300
11     N11     1.6879   -7.8204    3.3457 N.am     1 ZINC000751548479   -1.0500
12     S12     2.1570   -8.8460    2.1331 S.o2     1 ZINC000751548479    2.6800
13     O13     2.1428  -10.1547    2.6865 O.2      1 ZINC000751548479   -0.9500
14     O14     1.4051   -8.4797    0.9844 O.2      1 ZINC000751548479   -0.9400
15     C15     3.8406   -8.4805    1.7631 C.2      1 ZINC000751548479   -0.7500
16     C16     4.7813   -9.3862    1.9922 C.2      1 ZINC000751548479    0.0700
17     C17     6.1934   -9.0797    1.6819 C.ar     1 ZINC000751548479   -0.1100
18     C18     6.5400   -7.8356    1.1531 C.ar     1 ZINC000751548479   -0.0600
19     C19     7.8594   -7.5545    0.8657 C.ar     1 ZINC000751548479   -0.1600
20     C20     8.8400   -8.5050    1.1007 C.ar     1 ZINC000751548479    0.1200
21     F21    10.1308   -8.2248    0.8171 F        1 ZINC000751548479   -0.1300
22     C22     8.5013   -9.7417    1.6261 C.ar     1 ZINC000751548479   -0.1600
23     C23     7.1856  -10.0312    1.9220 C.ar     1 ZINC000751548479   -0.0500
24     C24     2.1554   -5.5626    4.0476 C.ar     1 ZINC000751548479   -0.0600
25     C25     2.1036   -4.1871    3.8124 C.ar     1 ZINC000751548479   -0.0300
26     C26     2.6423   -3.2720    4.7731 C.1      1 ZINC000751548479    0.2500
27     N27     3.0697   -2.5461    5.5353 N.1      1 ZINC000751548479   -0.4000
28     H28     0.0830    1.8510    0.2769 H        1 ZINC000751548479    0.0700
29     H29    -1.6957    1.9170    0.2738 H        1 ZINC000751548479    0.0900
30     H30    -0.8063    1.9593    1.8150 H        1 ZINC000751548479    0.0700
31     H31    -1.7795   -0.2852    1.4102 H        1 ZINC000751548479    0.0800
32     H32    -0.8902   -0.3935   -0.1278 H        1 ZINC000751548479    0.0800
33     H33     2.1717   -1.7544    2.6918 H        1 ZINC000751548479    0.4200
34     H34     0.5429   -4.2300    0.7988 H        1 ZINC000751548479    0.1600
35     H35     0.6482   -6.6477    1.2208 H        1 ZINC000751548479    0.1700
36     H36     1.4512   -8.1755    4.2168 H        1 ZINC000751548479    0.4300
37     H37     4.1061   -7.5188    1.3498 H        1 ZINC000751548479    0.1700
38     H38     4.5157  -10.3480    2.4056 H        1 ZINC000751548479    0.1500
39     H39     5.7764   -7.0944    0.9689 H        1 ZINC000751548479    0.1400
40     H40     8.1287   -6.5920    0.4564 H        1 ZINC000751548479    0.1400
41     H41     9.2694  -10.4789    1.8077 H        1 ZINC000751548479    0.1400
42     H42     6.9227  -10.9952    2.3317 H        1 ZINC000751548479    0.1400
43     H43     2.6047   -5.9402    4.9542 H        1 ZINC000751548479    0.1500
@<TRIPOS>BOND
1     1     2     1
2     1     28    1
3     1     29    1
4     1     30    1
5     2     3     1
6     2     31    1
7     2     32    1
8     3     4     1
9     4     5     2
10    4     6     am
11    6     7     1
12    6     33    1
13    7     25    ar
14    7     8     ar
15    8     9     ar
16    8     34    1
17    9     10    ar
18    9     35    1
19    10    11    1
20    10    24    ar
21    11    12    am
22    11    36    1
23    12    13    2
24    12    14    2
25    12    15    1
26    15    16    2
27    15    37    1
28    16    17    1
29    16    38    1
30    17    23    ar
31    17    18    ar
32    18    19    ar
33    18    39    1
34    19    20    ar
35    19    40    1
36    20    21    1
37    20    22    ar
38    22    23    ar
39    22    41    1
40    23    42    1
41    24    25    ar
42    24    43    1
43    25    26    1
44    26    27    3
@<TRIPOS>SUBSTRUCTURE
1   ZINC000751548479 1     RESIDUE    1   A     ZIN   1
@<TRIPOS>MOLECULE
ZINC000573650873
50	51	1	0	0
SMALL
USER_CHARGES
@<TRIPOS>ATOM
1      C1     -0.1867    2.4693   -0.9416 C.3      1 ZINC000573650873   -0.1400
2      C2     -0.3034    0.9583   -0.7314 C.3      1 ZINC000573650873    0.0100
3      C3      0.2567    0.5899    0.6439 C.3      1 ZINC000573650873   -0.1400
4      C4     -1.7743    0.5445   -0.8105 C.3      1 ZINC000573650873   -0.1500
5      C5      0.4786    0.2404   -1.8010 C.2      1 ZINC000573650873   -0.0100
6      C6      1.8065    0.3456   -2.0392 C.2      1 ZINC000573650873   -0.1800
7      C7      2.0270   -0.5278   -3.1404 C.2      1 ZINC000573650873   -0.0300
8      C8      3.3183   -0.8002   -3.8174 C.2      1 ZINC000573650873    0.6000
9      O9      4.3091   -0.1660   -3.5137 O.2      1 ZINC000573650873   -0.5100
10     N10     3.3926   -1.7513   -4.7695 N.am     1 ZINC000573650873   -0.5900
11     C11     4.6850   -2.0825   -5.3748 C.3      1 ZINC000573650873    0.1200
12     C12     5.3544   -3.1979   -4.5694 C.3      1 ZINC000573650873   -0.1000
13     C13     6.6838   -3.5386   -5.1919 C.ar     1 ZINC000573650873   -0.0800
14     C14     6.7588   -4.5102   -6.1725 C.ar     1 ZINC000573650873   -0.1000
15     C15     7.9778   -4.8232   -6.7439 C.ar     1 ZINC000573650873   -0.1100
16     C16     9.1230   -4.1639   -6.3343 C.ar     1 ZINC000573650873   -0.0400
17     Cl17   10.6544   -4.5560   -7.0519 Cl       1 ZINC000573650873   -0.0700
18     C18     9.0474   -3.1916   -5.3529 C.ar     1 ZINC000573650873   -0.1100
19     C19     7.8269   -2.8756   -4.7863 C.ar     1 ZINC000573650873   -0.1000
20     C20     2.1810   -2.4538   -5.1992 C.3      1 ZINC000573650873    0.0700
21     C21     1.4522   -1.6164   -6.2522 C.3      1 ZINC000573650873    0.0600
22     H22     1.2590   -0.6203   -5.8542 H        1 ZINC000573650873    0.1400
23     O23     2.2643   -1.5122   -7.4234 O.3      1 ZINC000573650873   -0.5200
24     C24     0.1253   -2.2890   -6.6097 C.3      1 ZINC000573650873    0.4300
25     F25    -0.6697   -2.3910   -5.4631 F        1 ZINC000573650873   -0.1700
26     F26    -0.5410   -1.5234   -7.5725 F        1 ZINC000573650873   -0.1700
27     F27     0.3733   -3.5676   -7.1205 F        1 ZINC000573650873   -0.1800
28     N28     0.8595   -1.0433   -3.4353 N.2      1 ZINC000573650873   -0.3400
29     O29    -0.0049   -0.6306   -2.6975 O.3      1 ZINC000573650873    0.1300
30     H30     0.8612    2.7641   -0.8852 H        1 ZINC000573650873    0.0600
31     H31    -0.5858    2.7317   -1.9214 H        1 ZINC000573650873    0.0600
32     H32    -0.7524    2.9885   -0.1680 H        1 ZINC000573650873    0.0700
33     H33    -0.3089    1.1092    1.4175 H        1 ZINC000573650873    0.0700
34     H34     0.1735   -0.4865    0.7936 H        1 ZINC000573650873    0.0600
35     H35     1.3046    0.8847    0.7003 H        1 ZINC000573650873    0.0600
36     H36    -2.1734    0.8069   -1.7903 H        1 ZINC000573650873    0.0600
37     H37    -1.8575   -0.5319   -0.6608 H        1 ZINC000573650873    0.0600
38     H38    -2.3399    1.0638   -0.0369 H        1 ZINC000573650873    0.0700
39     H39     2.5306    0.9519   -1.5153 H        1 ZINC000573650873    0.1800
40     H40     4.5306   -2.4174   -6.4005 H        1 ZINC000573650873    0.0900
41     H41     5.3239   -1.1994   -5.3731 H        1 ZINC000573650873    0.1000
42     H42     5.5087   -2.8630   -3.5436 H        1 ZINC000573650873    0.0800
43     H43     4.7154   -4.0810   -4.5710 H        1 ZINC000573650873    0.0800
44     H44     5.8647   -5.0251   -6.4919 H        1 ZINC000573650873    0.1300
45     H45     8.0363   -5.5825   -7.5096 H        1 ZINC000573650873    0.1300
46     H46     9.9411   -2.6768   -5.0325 H        1 ZINC000573650873    0.1300
47     H47     7.7677   -2.1164   -4.0204 H        1 ZINC000573650873    0.1300
48     H48     2.4528   -3.4188   -5.6268 H        1 ZINC000573650873    0.1000
49     H49     1.5267   -2.6080   -4.3411 H        1 ZINC000573650873    0.1200
50     H50     2.4764   -2.3627   -7.8319 H        1 ZINC000573650873    0.3900
@<TRIPOS>BOND
1     1     2     1
2     1     30    1
3     1     31    1
4     1     32    1
5     2     3     1
6     2     4     1
7     2     5     1
8     3     33    1
9     3     34    1
10    3     35    1
11    4     36    1
12    4     37    1
13    4     38    1
14    5     29    1
15    5     6     2
16    6     7     1
17    6     39    1
18    7     8     1
19    7     28    2
20    8     9     2
21    8     10    am
22    10    11    1
23    10    20    1
24    11    12    1
25    11    40    1
26    11    41    1
27    12    13    1
28    12    42    1
29    12    43    1
30    13    19    ar
31    13    14    ar
32    14    15    ar
33    14    44    1
34    15    16    ar
35    15    45    1
36    16    17    1
37    16    18    ar
38    18    19    ar
39    18    46    1
40    19    47    1
41    20    21    1
42    20    48    1
43    20    49    1
44    21    22    1
45    21    23    1
46    21    24    1
47    23    50    1
48    24    25    1
49    24    26    1
50    24    27    1
51    28    29    1
@<TRIPOS>SUBSTRUCTURE
1   ZINC000573650873 1     RESIDUE    1   A     ZIN   1
@<TRIPOS>MOLECULE
ZINC000355549087
43	44	0	0	0
SMALL
USER_CHARGES
@<TRIPOS>ATOM
1 C1       -1.4101     1.5502     0.1778 C.3    1 <0>      -0.1500
2 C2       -0.8637     0.1215     0.1439 C.3    1 <0>      -0.1200
3 C3       -2.0038    -0.8534    -0.1573 C.3    1 <0>      -0.1000
4 H4       -2.5152    -0.5439    -1.0688 H      1 <0>       0.0800
5 C5       -2.9949    -0.8550     1.0082 C.3    1 <0>      -0.1500
6 C6       -1.4347    -2.2613    -0.3448 C.3    1 <0>       0.0900
7 H7       -0.6611    -2.2412    -1.1124 H      1 <0>       0.1000
8 O8       -0.8715    -2.7154     0.8875 O.3    1 <0>      -0.3500
9 C9        0.5554    -2.7918     0.8811 C.3    1 <0>       0.0200
10 C10      -2.5379    -3.1967    -0.7679 C.2    1 <0>       0.5100
11 O11      -2.8758    -4.1049    -0.0386 O.2    1 <0>      -0.4800
12 N12      -3.1490    -3.0241    -1.9567 N.am   1 <0>      -0.6200
13 C13      -4.1662    -3.8867    -2.3468 C.2    1 <0>       0.2400
14 N14      -4.8109    -3.8103    -3.4670 N.2    1 <0>      -0.5000
15 C15      -5.7547    -4.7179    -3.6796 C.2    1 <0>       0.1700
16 C16      -6.5749    -4.7544    -4.9174 C.2    1 <0>      -0.1100
17 C17      -7.5641    -5.6508    -5.2045 C.2    1 <0>       0.0600
18 N18      -8.0736    -5.3531    -6.4248 N.pl3  1 <0>      -0.5400
19 C19      -7.4092    -4.2579    -6.9285 C.2    1 <0>      -0.0600
20 C20      -7.6599    -3.6180    -8.2247 C.2    1 <0>       0.5900
21 N21      -8.6161    -4.1025    -9.0417 N.am   1 <0>      -0.8600
22 O22      -7.0044    -2.6498    -8.5622 O.2    1 <0>      -0.5300
23 C23      -6.4786    -3.8677    -6.0063 C.2    1 <0>      -0.0600
24 C24      -5.9046    -5.6024    -2.6772 C.2    1 <0>      -0.3200
25 S25      -4.7383    -5.2031    -1.4189 S.3    1 <0>       0.2500
26 H26      -0.5979     2.2448     0.3924 H      1 <0>       0.0600
27 H27      -1.8506     1.7938    -0.7889 H      1 <0>       0.0600
28 H28      -2.1710     1.6299     0.9543 H      1 <0>       0.0600
29 H29      -0.1029     0.0418    -0.6325 H      1 <0>       0.0600
30 H30      -0.4232    -0.1221     1.1107 H      1 <0>       0.0700
31 H31      -2.4834    -1.1645     1.9197 H      1 <0>       0.0700
32 H32      -3.4003     0.1480     1.1418 H      1 <0>       0.0600
33 H33      -3.8071    -1.5495     0.7936 H      1 <0>       0.0500
34 H34       0.8995    -3.2375     1.8145 H      1 <0>       0.0900
35 H35       0.8826    -3.4066     0.0426 H      1 <0>       0.0500
36 H36       0.9725    -1.7897     0.7815 H      1 <0>       0.0500
37 H37      -2.8787    -2.2977    -2.5400 H      1 <0>       0.4200
38 H38      -7.8863    -6.4606    -4.5666 H      1 <0>       0.1800
39 H39      -8.7890    -5.8334    -6.8702 H      1 <0>       0.4200
40 H40      -9.1385    -4.8743    -8.7726 H      1 <0>       0.4000
41 H41      -8.7818    -3.6795    -9.8987 H      1 <0>       0.4100
42 H42      -5.7933    -3.0381    -6.0987 H      1 <0>       0.1500
43 H43      -6.6133    -6.4168    -2.6502 H      1 <0>       0.1800
@<TRIPOS>BOND
1    1    2 1
2    1   26 1
3    1   27 1
4    1   28 1
5    2    3 1
6    2   29 1
7    2   30 1
8    3    4 1
9    3    5 1
10    3    6 1
11    5   31 1
12    5   32 1
13    5   33 1
14    6    7 1
15    6    8 1
16    6   10 1
17    8    9 1
18    9   34 1
19    9   35 1
20    9   36 1
21   10   11 2
22   10   12 am
23   12   13 1
24   12   37 1
25   13   25 1
26   13   14 2
27   14   15 1
28   15   16 1
29   15   24 2
30   16   23 1
31   16   17 2
32   17   18 1
33   17   38 1
34   18   19 1
35   18   39 1
36   19   20 1
37   19   23 2
38   20   21 am
39   20   22 2
40   21   40 1
41   21   41 1
42   23   42 1
43   24   25 1
44   24   43 1
@<TRIPOS>MOLECULE
ZINC000191003171
45	46	1	0	0
SMALL
USER_CHARGES
@<TRIPOS>ATOM
1      C1     -0.0184    1.5028    0.0103 C.3      1 ZINC000191003171   -0.1200
2      C2      0.0021   -0.0041    0.0020 C.ar     1 ZINC000191003171   -0.0800
3      C3      0.0057   -0.6885   -1.1987 C.ar     1 ZINC000191003171   -0.0700
4      C4      0.0245   -2.0710   -1.2063 C.ar     1 ZINC000191003171   -0.1800
5      C5      0.0280   -2.8173   -2.5155 C.3      1 ZINC000191003171    0.5100
6      F6      1.3479   -3.0303   -2.9274 F        1 ZINC000191003171   -0.1800
7      F7     -0.6140   -4.0494   -2.3516 F        1 ZINC000191003171   -0.1800
8      F8     -0.6468   -2.0649   -3.4830 F        1 ZINC000191003171   -0.1800
9      C9      0.0405   -2.7685   -0.0132 C.ar     1 ZINC000191003171   -0.0800
10     C10     0.0373   -2.0838    1.1879 C.ar     1 ZINC000191003171   -0.1000
11     C11     0.0229   -0.7017    1.1955 C.ar     1 ZINC000191003171   -0.0500
12     C12     0.0194    0.0446    2.5047 C.3      1 ZINC000191003171    0.0900
13     N13    -1.3481    0.4818    2.8155 N.3      1 ZINC000191003171   -0.6800
14     C14    -1.3902    1.2146    4.0880 C.3      1 ZINC000191003171    0.1200
15     H15    -0.4743    1.7940    4.2041 H        1 ZINC000191003171    0.0600
16     C16    -1.5151    0.2210    5.2448 C.3      1 ZINC000191003171   -0.1400
17     C17    -2.5765    2.1438    4.0936 C.ar     1 ZINC000191003171   -0.0100
18     C18    -3.7839    1.7260    3.5660 C.ar     1 ZINC000191003171   -0.1300
19     C19    -4.8732    2.5775    3.5705 C.ar     1 ZINC000191003171    0.0100
20     C20    -4.7560    3.8474    4.1024 C.ar     1 ZINC000191003171   -0.7000
21     S21    -6.1445    4.9322    4.1079 S.o2     1 ZINC000191003171    2.5000
22     C22    -6.5211    5.1765    5.8655 C.3      1 ZINC000191003171   -0.6500
23     O23    -5.6523    6.1342    3.5316 O.2      1 ZINC000191003171   -0.9300
24     O24    -7.1752    4.1854    3.4762 O.2      1 ZINC000191003171   -0.9300
25     C25    -3.5471    4.2669    4.6317 C.ar     1 ZINC000191003171    0.1900
26     F26    -3.4313    5.5083    5.1521 F        1 ZINC000191003171   -0.1200
27     C27    -2.4585    3.4116    4.6314 C.ar     1 ZINC000191003171   -0.1700
28     H28     1.0042    1.8801    0.0026 H        1 ZINC000191003171    0.0800
29     H29    -0.5455    1.8639   -0.8728 H        1 ZINC000191003171    0.0800
30     H30    -0.5286    1.8543    0.9071 H        1 ZINC000191003171    0.0600
31     H31    -0.0064   -0.1435   -2.1310 H        1 ZINC000191003171    0.1400
32     H32     0.0551   -3.8483   -0.0191 H        1 ZINC000191003171    0.1400
33     H33     0.0495   -2.6288    2.1202 H        1 ZINC000191003171    0.1400
34     H34     0.3804   -0.6106    3.2974 H        1 ZINC000191003171    0.0900
35     H35     0.6707    0.9153    2.4283 H        1 ZINC000191003171    0.0500
36     H36    -1.7292    1.0383    2.0650 H        1 ZINC000191003171    0.3500
37     H37    -1.5463    0.7647    6.1890 H        1 ZINC000191003171    0.0600
38     H38    -2.4311   -0.3584    5.1287 H        1 ZINC000191003171    0.0700
39     H39    -0.6570   -0.4511    5.2407 H        1 ZINC000191003171    0.0600
40     H40    -3.8763    0.7338    3.1497 H        1 ZINC000191003171    0.1500
41     H41    -5.8160    2.2501    3.1577 H        1 ZINC000191003171    0.1600
42     H42    -5.6580    5.6177    6.3641 H        1 ZINC000191003171    0.1300
43     H43    -7.3777    5.8432    5.9643 H        1 ZINC000191003171    0.1400
44     H44    -6.7537    4.2155    6.3242 H        1 ZINC000191003171    0.1300
45     H45    -1.5153    3.7376    5.0443 H        1 ZINC000191003171    0.1500
@<TRIPOS>BOND
1     1     2     1
2     1     28    1
3     1     29    1
4     1     30    1
5     2     11    ar
6     2     3     ar
7     3     4     ar
8     3     31    1
9     4     5     1
10    4     9     ar
11    5     6     1
12    5     7     1
13    5     8     1
14    9     10    ar
15    9     32    1
16    10    11    ar
17    10    33    1
18    11    12    1
19    12    13    1
20    12    34    1
21    12    35    1
22    13    14    1
23    13    36    1
24    14    15    1
25    14    16    1
26    14    17    1
27    16    37    1
28    16    38    1
29    16    39    1
30    17    27    ar
31    17    18    ar
32    18    19    ar
33    18    40    1
34    19    20    ar
35    19    41    1
36    20    21    1
37    20    25    ar
38    21    22    1
39    21    23    2
40    21    24    2
41    22    42    1
42    22    43    1
43    22    44    1
44    25    26    1
45    25    27    ar
46    27    45    1
@<TRIPOS>SUBSTRUCTURE
1   ZINC000191003171 1     RESIDUE    1   A     ZIN   1
@<TRIPOS>MOLECULE
ZINC000504638019
52	53	1	0	0
SMALL
USER_CHARGES
@<TRIPOS>ATOM
1      C1     -1.3450    1.3808   -1.7945 C.3      1 ZINC000504638019   -0.1200
2      C2     -1.1565   -0.0991   -1.5811 C.ar     1 ZINC000504638019   -0.0900
3      C3     -1.1461   -0.9578   -2.6643 C.ar     1 ZINC000504638019   -0.1200
4      C4     -0.9732   -2.3152   -2.4686 C.ar     1 ZINC000504638019   -0.1100
5      C5     -0.8103   -2.8139   -1.1896 C.ar     1 ZINC000504638019   -0.0900
6      C6     -0.6223   -4.2938   -0.9762 C.3      1 ZINC000504638019   -0.0600
7      H7     -0.6428   -4.8052   -1.9385 H        1 ZINC000504638019    0.0900
8      C8      0.7245   -4.5437   -0.2944 C.3      1 ZINC000504638019   -0.1500
9      C9     -1.7493   -4.8285   -0.0903 C.3      1 ZINC000504638019    0.1300
10     N10    -1.6349   -6.2849    0.0196 N.am     1 ZINC000504638019   -0.7000
11     C11    -2.5265   -6.9773    0.7559 C.2      1 ZINC000504638019    0.5100
12     O12    -3.4240   -6.3943    1.3279 O.2      1 ZINC000504638019   -0.5100
13     C13    -2.4098   -8.4630    0.8680 C.2      1 ZINC000504638019    0.5100
14     O14    -1.5789   -9.0575    0.2132 O.2      1 ZINC000504638019   -0.5200
15     N15    -3.2273   -9.1426    1.6964 N.am     1 ZINC000504638019   -0.5800
16     C16    -4.2840   -8.4362    2.4248 C.3      1 ZINC000504638019    0.0600
17     C17    -3.0592  -10.5877    1.8685 C.3      1 ZINC000504638019    0.1100
18     C18    -2.0895  -10.8546    3.0214 C.3      1 ZINC000504638019   -0.1000
19     H19    -2.4417  -10.3495    3.9208 H        1 ZINC000504638019    0.0800
20     C20    -0.6973  -10.3374    2.6528 C.3      1 ZINC000504638019   -0.0800
21     C21     0.3149  -10.8226    3.6489 C.2      1 ZINC000504638019   -0.1500
22     C22     0.1140  -11.8055    4.4668 C.2      1 ZINC000504638019   -0.1600
23     C23    -1.1627  -12.5908    4.5403 C.3      1 ZINC000504638019   -0.0900
24     C24    -1.9985  -12.3639    3.2798 C.3      1 ZINC000504638019   -0.1100
25     C25    -0.8193   -1.9550   -0.1065 C.ar     1 ZINC000504638019   -0.1100
26     C26    -0.9884   -0.5971   -0.3026 C.ar     1 ZINC000504638019   -0.1200
27     H27    -0.3733    1.8544   -1.9343 H        1 ZINC000504638019    0.0700
28     H28    -1.9598    1.5449   -2.6796 H        1 ZINC000504638019    0.0700
29     H29    -1.8383    1.8135   -0.9242 H        1 ZINC000504638019    0.0700
30     H30    -1.2734   -0.5682   -3.6635 H        1 ZINC000504638019    0.1200
31     H31    -0.9658   -2.9862   -3.3148 H        1 ZINC000504638019    0.1200
32     H32     0.8604   -5.6141   -0.1400 H        1 ZINC000504638019    0.0600
33     H33     1.5274   -4.1628   -0.9255 H        1 ZINC000504638019    0.0600
34     H34     0.7450   -4.0323    0.6679 H        1 ZINC000504638019    0.0600
35     H35    -1.6748   -4.3824    0.9014 H        1 ZINC000504638019    0.0800
36     H36    -2.7120   -4.5720   -0.5327 H        1 ZINC000504638019    0.0800
37     H37    -0.9175   -6.7509   -0.4377 H        1 ZINC000504638019    0.4100
38     H38    -5.1612   -8.3357    1.7856 H        1 ZINC000504638019    0.0600
39     H39    -4.5488   -9.0006    3.3189 H        1 ZINC000504638019    0.0700
40     H40    -3.9284   -7.4466    2.7118 H        1 ZINC000504638019    0.1100
41     H41    -4.0244  -11.0416    2.0931 H        1 ZINC000504638019    0.0900
42     H42    -2.6598  -11.0189    0.9506 H        1 ZINC000504638019    0.0900
43     H43    -0.4289  -10.6985    1.6599 H        1 ZINC000504638019    0.0800
44     H44    -0.7062   -9.2475    2.6484 H        1 ZINC000504638019    0.0600
45     H45     1.2704  -10.3206    3.6854 H        1 ZINC000504638019    0.1000
46     H46     0.9152  -12.0777    5.1380 H        1 ZINC000504638019    0.1000
47     H47    -0.9296  -13.6515    4.6342 H        1 ZINC000504638019    0.0700
48     H48    -1.7345  -12.2702    5.4110 H        1 ZINC000504638019    0.0700
49     H49    -2.9970  -12.7770    3.4230 H        1 ZINC000504638019    0.0700
50     H50    -1.5174  -12.8468    2.4292 H        1 ZINC000504638019    0.0700
51     H51    -0.6916   -2.3445    0.8927 H        1 ZINC000504638019    0.1200
52     H52    -0.9954    0.0739    0.5436 H        1 ZINC000504638019    0.1200
@<TRIPOS>BOND
1     1     2     1
2     1     27    1
3     1     28    1
4     1     29    1
5     2     26    ar
6     2     3     ar
7     3     4     ar
8     3     30    1
9     4     5     ar
10    4     31    1
11    5     6     1
12    5     25    ar
13    6     7     1
14    6     8     1
15    6     9     1
16    8     32    1
17    8     33    1
18    8     34    1
19    9     10    1
20    9     35    1
21    9     36    1
22    10    11    am
23    10    37    1
24    11    12    2
25    11    13    1
26    13    14    2
27    13    15    am
28    15    16    1
29    15    17    1
30    16    38    1
31    16    39    1
32    16    40    1
33    17    18    1
34    17    41    1
35    17    42    1
36    18    19    1
37    18    24    1
38    18    20    1
39    20    21    1
40    20    43    1
41    20    44    1
42    21    22    2
43    21    45    1
44    22    23    1
45    22    46    1
46    23    24    1
47    23    47    1
48    23    48    1
49    24    49    1
50    24    50    1
51    25    26    ar
52    25    51    1
53    26    52    1
@<TRIPOS>SUBSTRUCTURE
1   ZINC000504638019 1     RESIDUE    1   A     ZIN   1
@<TRIPOS>MOLECULE
ZINC000004313955
47	49	1	0	0
SMALL
USER_CHARGES
@<TRIPOS>ATOM
1      C1     -0.0187    1.5258    0.0104 C.3      1 ZINC000004313955   -0.1500
2      C2      0.0021   -0.0041    0.0020 C.3      1 ZINC000004313955   -0.1100
3      H3      0.5122   -0.3561   -0.8946 H        1 ZINC000004313955    0.0800
4      C4     -1.4334   -0.5345    0.0145 C.3      1 ZINC000004313955   -0.1100
5      C5     -1.4142   -2.0642   -0.0270 C.3      1 ZINC000004313955   -0.1100
6      H6     -2.4371   -2.4406   -0.0417 H        1 ZINC000004313955    0.0900
7      C7     -0.6799   -2.5317   -1.2853 C.3      1 ZINC000004313955   -0.1500
8      C8     -0.6916   -2.5957    1.2148 C.3      1 ZINC000004313955    0.1200
9      N9      0.6392   -1.9773    1.2884 N.am     1 ZINC000004313955   -0.6000
10     C10     1.7457   -2.7395    1.3940 C.2      1 ZINC000004313955    0.5400
11     O11     1.6485   -3.9479    1.4291 O.2      1 ZINC000004313955   -0.5300
12     C12     3.1036   -2.0902    1.4686 C.3      1 ZINC000004313955   -0.1400
13     S13     4.3772   -3.3692    1.6041 S.3      1 ZINC000004313955    0.0800
14     C14     5.8192   -2.3589    1.6721 C.2      1 ZINC000004313955    0.1100
15     N15     5.8535   -1.0457    1.6347 N.2      1 ZINC000004313955   -0.2800
16     N16     7.0687   -0.6337    1.7057 N.2      1 ZINC000004313955   -0.2400
17     C17     7.8849   -1.6582    1.7929 C.2      1 ZINC000004313955    0.2500
18     C18     9.3587   -1.6013    1.8924 C.ar     1 ZINC000004313955   -0.0100
19     C19    10.1014   -2.7800    1.9739 C.ar     1 ZINC000004313955   -0.0700
20     C20    11.4765   -2.7207    2.0667 C.ar     1 ZINC000004313955   -0.1100
21     C21    12.1207   -1.4951    2.0795 C.ar     1 ZINC000004313955   -0.0100
22     Cl22   13.8515   -1.4296    2.1971 Cl       1 ZINC000004313955   -0.0500
23     C23    11.3903   -0.3215    1.9985 C.ar     1 ZINC000004313955   -0.1100
24     C24    10.0142   -0.3676    1.8995 C.ar     1 ZINC000004313955    0.0100
25     Cl25    9.0994    1.1043    1.7981 Cl       1 ZINC000004313955   -0.0100
26     N26     7.1094   -2.7945    1.7795 N.pl3    1 ZINC000004313955   -0.3000
27     N27     7.5404   -4.0888    1.8507 N.3      1 ZINC000004313955   -0.5800
28     C28     0.7415   -0.5122    1.2437 C.3      1 ZINC000004313955    0.1100
29     H29     1.0039    1.9031    0.0027 H        1 ZINC000004313955    0.0600
30     H30    -0.5459    1.8868   -0.8726 H        1 ZINC000004313955    0.0600
31     H31    -0.5289    1.8773    0.9072 H        1 ZINC000004313955    0.0600
32     H32    -1.9355   -0.2021    0.9231 H        1 ZINC000004313955    0.0700
33     H33    -1.9686   -0.1542   -0.8556 H        1 ZINC000004313955    0.0700
34     H34     0.3432   -2.1560   -1.2696 H        1 ZINC000004313955    0.0600
35     H35    -0.6665   -3.6212   -1.3144 H        1 ZINC000004313955    0.0600
36     H36    -1.1933   -2.1509   -2.1682 H        1 ZINC000004313955    0.0600
37     H37    -1.2630   -2.3406    2.1072 H        1 ZINC000004313955    0.0700
38     H38    -0.5879   -3.6783    1.1418 H        1 ZINC000004313955    0.1000
39     H39     3.2746   -1.5012    0.5675 H        1 ZINC000004313955    0.1300
40     H40     3.1477   -1.4395    2.3419 H        1 ZINC000004313955    0.1300
41     H41     9.6005   -3.7368    1.9647 H        1 ZINC000004313955    0.1600
42     H42    12.0520   -3.6325    2.1298 H        1 ZINC000004313955    0.1500
43     H43    11.8983    0.6314    2.0090 H        1 ZINC000004313955    0.1500
44     H44     7.5926   -4.4003    2.8090 H        1 ZINC000004313955    0.3700
45     H45     6.9493   -4.6973    1.3044 H        1 ZINC000004313955    0.3800
46     H46     1.7904   -0.2207    1.1903 H        1 ZINC000004313955    0.0900
47     H47     0.2870   -0.0867    2.1384 H        1 ZINC000004313955    0.0800
@<TRIPOS>BOND
1     1     2     1
2     1     29    1
3     1     30    1
4     1     31    1
5     2     3     1
6     2     28    1
7     2     4     1
8     4     5     1
9     4     32    1
10    4     33    1
11    5     6     1
12    5     7     1
13    5     8     1
14    7     34    1
15    7     35    1
16    7     36    1
17    8     9     1
18    8     37    1
19    8     38    1
20    9     10    am
21    9     28    1
22    10    11    2
23    10    12    1
24    12    13    1
25    12    39    1
26    12    40    1
27    13    14    1
28    14    26    1
29    14    15    2
30    15    16    1
31    16    17    2
32    17    18    1
33    17    26    1
34    18    24    ar
35    18    19    ar
36    19    20    ar
37    19    41    1
38    20    21    ar
39    20    42    1
40    21    22    1
41    21    23    ar
42    23    24    ar
43    23    43    1
44    24    25    1
45    26    27    1
46    27    44    1
47    27    45    1
48    28    46    1
49    28    47    1
@<TRIPOS>SUBSTRUCTURE
1   ZINC000004313955 1     RESIDUE    1   A     ZIN   1
@<TRIPOS>MOLECULE
ZINC000179743483
44	46	1	0	0
SMALL
USER_CHARGES
@<TRIPOS>ATOM
1      C1      1.0084    0.2037   -1.1366 C.3      1 ZINC000179743483   -0.1400
2      C2      0.0072    0.0033    0.0029 C.3      1 ZINC000179743483   -0.1000
3      H3     -0.4096    0.9675    0.2941 H        1 ZINC000179743483    0.1000
4      C4     -1.1202   -0.9192   -0.4652 C.3      1 ZINC000179743483   -0.0700
5      C5     -1.8979   -0.2438   -1.5652 C.ar     1 ZINC000179743483   -0.0600
6      C6     -2.9841    0.5531   -1.2546 C.ar     1 ZINC000179743483   -0.1100
7      C7     -3.6974    1.1731   -2.2632 C.ar     1 ZINC000179743483   -0.0900
8      C8     -3.3244    0.9962   -3.5834 C.ar     1 ZINC000179743483   -0.0900
9      Br9    -4.2995    1.8447   -4.9636 Br       1 ZINC000179743483   -0.0500
10     C10    -2.2375    0.1988   -3.8936 C.ar     1 ZINC000179743483   -0.0900
11     C11    -1.5216   -0.4166   -2.8841 C.ar     1 ZINC000179743483   -0.1100
12     C12     0.7075   -0.6184    1.1835 C.2      1 ZINC000179743483    0.5200
13     O13     1.7038   -1.2888    1.0135 O.2      1 ZINC000179743483   -0.5300
14     N14     0.2268   -0.4295    2.4284 N.am     1 ZINC000179743483   -0.6100
15     C15    -1.0453    0.2743    2.6407 C.3      1 ZINC000179743483    0.1000
16     C16    -1.9607   -0.6085    3.4949 C.3      1 ZINC000179743483   -0.1400
17     C17    -1.2326   -0.9938    4.7847 C.3      1 ZINC000179743483   -0.1100
18     C18     0.0269   -1.7928    4.4423 C.3      1 ZINC000179743483   -0.0200
19     H19    -0.2495   -2.6834    3.8778 H        1 ZINC000179743483    0.0900
20     C20     0.7254   -2.2001    5.7140 C.2      1 ZINC000179743483    0.0500
21     N21     1.1748   -1.3816    6.6044 N.2      1 ZINC000179743483   -0.4700
22     C22     1.7613   -1.9064    7.6615 C.2      1 ZINC000179743483    0.0400
23     C23     1.8092   -3.2419    7.6627 C.2      1 ZINC000179743483   -0.2600
24     S24     1.0306   -3.8139    6.1892 S.3      1 ZINC000179743483    0.1300
25     C25     0.9618   -0.9288    3.5985 C.3      1 ZINC000179743483    0.1200
26     H26     1.4819   -0.7485   -1.3758 H        1 ZINC000179743483    0.0700
27     H27     0.4871    0.5814   -2.0161 H        1 ZINC000179743483    0.0700
28     H28     1.7696    0.9209   -0.8295 H        1 ZINC000179743483    0.0600
29     H29    -0.6957   -1.8507   -0.8395 H        1 ZINC000179743483    0.0900
30     H30    -1.7853   -1.1333    0.3714 H        1 ZINC000179743483    0.0800
31     H31    -3.2755    0.6908   -0.2239 H        1 ZINC000179743483    0.1300
32     H32    -4.5462    1.7953   -2.0205 H        1 ZINC000179743483    0.1300
33     H33    -1.9459    0.0604   -4.9242 H        1 ZINC000179743483    0.1300
34     H34    -0.6729   -1.0392   -3.1262 H        1 ZINC000179743483    0.1300
35     H35    -0.8600    1.2161    3.1573 H        1 ZINC000179743483    0.0700
36     H36    -1.5197    0.4698    1.6790 H        1 ZINC000179743483    0.0900
37     H37    -2.8698   -0.0596    3.7404 H        1 ZINC000179743483    0.0800
38     H38    -2.2183   -1.5102    2.9393 H        1 ZINC000179743483    0.0700
39     H39    -0.9533   -0.0908    5.3276 H        1 ZINC000179743483    0.0800
40     H40    -1.8907   -1.6017    5.4055 H        1 ZINC000179743483    0.0700
41     H41     2.1700   -1.3063    8.4610 H        1 ZINC000179743483    0.1800
42     H42     2.2449   -3.8613    8.4328 H        1 ZINC000179743483    0.1800
43     H43     1.8131   -1.5250    3.2698 H        1 ZINC000179743483    0.0900
44     H44     1.3120   -0.0834    4.1907 H        1 ZINC000179743483    0.0800
@<TRIPOS>BOND
1     1     2     1
2     1     26    1
3     1     27    1
4     1     28    1
5     2     3     1
6     2     4     1
7     2     12    1
8     4     5     1
9     4     29    1
10    4     30    1
11    5     11    ar
12    5     6     ar
13    6     7     ar
14    6     31    1
15    7     8     ar
16    7     32    1
17    8     9     1
18    8     10    ar
19    10    11    ar
20    10    33    1
21    11    34    1
22    12    13    2
23    12    14    am
24    14    25    1
25    14    15    1
26    15    16    1
27    15    35    1
28    15    36    1
29    16    17    1
30    16    37    1
31    16    38    1
32    17    18    1
33    17    39    1
34    17    40    1
35    18    19    1
36    18    20    1
37    18    25    1
38    20    24    1
39    20    21    2
40    21    22    1
41    22    23    2
42    22    41    1
43    23    24    1
44    23    42    1
45    25    43    1
46    25    44    1
@<TRIPOS>SUBSTRUCTURE
1   ZINC000179743483 1     RESIDUE    1   A     ZIN   1
@<TRIPOS>MOLECULE
ZINC001141221454
51	54	1	0	0
SMALL
USER_CHARGES
@<TRIPOS>ATOM
1      C1     -0.0173    1.4248    0.0099 C.3      1 ZINC001141221454    0.0300
2      O2      0.0021   -0.0041    0.0020 O.3      1 ZINC001141221454   -0.3100
3      C3     -1.2008   -0.6377    0.0101 C.ar     1 ZINC001141221454    0.0900
4      C4     -2.3742    0.1001    0.0195 C.ar     1 ZINC001141221454   -0.1800
5      C5     -3.5961   -0.5461    0.0272 C.ar     1 ZINC001141221454   -0.0900
6      C6     -3.6497   -1.9273    0.0256 C.ar     1 ZINC001141221454   -0.1200
7      C7     -2.4814   -2.6673    0.0167 C.ar     1 ZINC001141221454   -0.0800
8      C8     -2.5436   -4.1730    0.0155 C.3      1 ZINC001141221454    0.0900
9      N9     -2.3141   -4.6736    1.3773 N.3      1 ZINC001141221454   -0.5100
10     C10    -3.4902   -4.4108    2.2466 C.3      1 ZINC001141221454    0.0300
11     C11    -3.3148   -5.4287    3.4035 C.3      1 ZINC001141221454   -0.0700
12     C12    -2.7439   -6.6644    2.6838 C.3      1 ZINC001141221454   -0.1000
13     C13    -3.4497   -8.0125    2.7511 C.3      1 ZINC001141221454   -0.1400
14     C14    -2.1094   -7.8086    3.4635 C.3      1 ZINC001141221454   -0.1800
15     H15    -1.2310   -8.2869    3.0303 H        1 ZINC001141221454    0.1300
16     C16    -2.1267   -7.7210    4.9678 C.2      1 ZINC001141221454    0.5500
17     O17    -2.6308   -6.7624    5.5137 O.2      1 ZINC001141221454   -0.5300
18     N18    -1.5821   -8.7079    5.7066 N.am     1 ZINC001141221454   -0.7300
19     C19    -1.5989   -8.6228    7.1690 C.3      1 ZINC001141221454    0.1700
20     C20    -0.9323   -9.8427    7.7509 C.ar     1 ZINC001141221454   -0.1600
21     C21    -1.6738  -10.9784    8.0374 C.ar     1 ZINC001141221454   -0.0600
22     C22    -1.0181  -12.0774    8.5714 C.ar     1 ZINC001141221454   -0.1700
23     C23     0.3429  -12.0046    8.7987 C.ar     1 ZINC001141221454    0.1100
24     N24     1.0167  -10.9071    8.5139 N.ar     1 ZINC001141221454   -0.4800
25     C25     0.4273   -9.8453    8.0004 C.ar     1 ZINC001141221454    0.1200
26     C26    -2.1300   -6.1431    1.3786 C.3      1 ZINC001141221454    0.0700
27     C27    -1.2562   -2.0261    0.0032 C.ar     1 ZINC001141221454    0.0900
28     F28    -0.1146   -2.7486   -0.0055 F        1 ZINC001141221454   -0.1300
29     H29     1.0053    1.8021    0.0021 H        1 ZINC001141221454    0.1000
30     H30    -0.5445    1.7859   -0.8732 H        1 ZINC001141221454    0.0600
31     H31    -0.5275    1.7763    0.9067 H        1 ZINC001141221454    0.0600
32     H32    -2.3339    1.1793    0.0211 H        1 ZINC001141221454    0.1400
33     H33    -4.5102    0.0290    0.0349 H        1 ZINC001141221454    0.1300
34     H34    -4.6058   -2.4295    0.0316 H        1 ZINC001141221454    0.1300
35     H35    -3.5258   -4.4958   -0.3296 H        1 ZINC001141221454    0.0600
36     H36    -1.7766   -4.5677   -0.6508 H        1 ZINC001141221454    0.0900
37     H37    -3.4666   -3.3894    2.6265 H        1 ZINC001141221454    0.0800
38     H38    -4.4176   -4.5995    1.7058 H        1 ZINC001141221454    0.0500
39     H39    -2.6096   -5.0533    4.1450 H        1 ZINC001141221454    0.0900
40     H40    -4.2754   -5.6593    3.8642 H        1 ZINC001141221454    0.0700
41     H41    -4.3437   -8.0824    3.3707 H        1 ZINC001141221454    0.1000
42     H42    -3.4527   -8.6249    1.8494 H        1 ZINC001141221454    0.1100
43     H43    -1.1790   -9.4746    5.2700 H        1 ZINC001141221454    0.4000
44     H44    -1.0624   -7.7290    7.4872 H        1 ZINC001141221454    0.0800
45     H45    -2.6302   -8.5711    7.5181 H        1 ZINC001141221454    0.0800
46     H46    -2.7370  -11.0065    7.8494 H        1 ZINC001141221454    0.1400
47     H47    -1.5644  -12.9788    8.8070 H        1 ZINC001141221454    0.1400
48     H48     0.8609  -12.8560    9.2147 H        1 ZINC001141221454    0.1600
49     H49     1.0120   -8.9644    7.7803 H        1 ZINC001141221454    0.1600
50     H50    -2.6424   -6.5838    0.5234 H        1 ZINC001141221454    0.0500
51     H51    -1.0680   -6.3859    1.3430 H        1 ZINC001141221454    0.0900
@<TRIPOS>BOND
1     1     2     1
2     1     29    1
3     1     30    1
4     1     31    1
5     2     3     1
6     3     27    ar
7     3     4     ar
8     4     5     ar
9     4     32    1
10    5     6     ar
11    5     33    1
12    6     7     ar
13    6     34    1
14    7     8     1
15    7     27    ar
16    8     9     1
17    8     35    1
18    8     36    1
19    9     26    1
20    9     10    1
21    10    11    1
22    10    37    1
23    10    38    1
24    11    12    1
25    11    39    1
26    11    40    1
27    12    14    1
28    12    13    1
29    12    26    1
30    13    14    1
31    13    41    1
32    13    42    1
33    14    15    1
34    14    16    1
35    16    17    2
36    16    18    am
37    18    19    1
38    18    43    1
39    19    20    1
40    19    44    1
41    19    45    1
42    20    25    ar
43    20    21    ar
44    21    22    ar
45    21    46    1
46    22    23    ar
47    22    47    1
48    23    24    ar
49    23    48    1
50    24    25    ar
51    25    49    1
52    26    50    1
53    26    51    1
54    27    28    1
@<TRIPOS>SUBSTRUCTURE
1   ZINC001141221454 1     RESIDUE    1   A     ZIN   1
@<TRIPOS>MOLECULE
ZINC000512239524
60	63	1	0	0
SMALL
USER_CHARGES
@<TRIPOS>ATOM
1      C1      1.5644   -0.9739   -1.9547 C.3      1 ZINC000512239524   -0.1600
2      C2      2.0362    0.2192   -1.1211 C.3      1 ZINC000512239524    0.2000
3      H3      1.1742    0.8112   -0.8137 H        1 ZINC000512239524    0.1100
4      N4      2.7449   -0.2645    0.0663 N.am     1 ZINC000512239524   -0.7400
5      C5      2.0538   -0.5998    1.1737 C.2      1 ZINC000512239524    0.7100
6      O6      0.8530   -0.4143    1.2203 O.2      1 ZINC000512239524   -0.5800
7      N7      2.6936   -1.1407    2.2294 N.am     1 ZINC000512239524   -0.6300
8      C8      1.9403   -1.6181    3.3970 C.3      1 ZINC000512239524    0.1300
9      C9      2.3362   -3.0710    3.6788 C.3      1 ZINC000512239524   -0.1100
10     C10     3.8563   -3.1607    3.8319 C.3      1 ZINC000512239524   -0.1000
11     C11     4.2464   -4.5827    4.1429 C.2      1 ZINC000512239524    0.5300
12     O12     3.3930   -5.4398    4.2332 O.2      1 ZINC000512239524   -0.5300
13     N13     5.5437   -4.9021    4.3207 N.am     1 ZINC000512239524   -0.5800
14     C14     5.9229   -6.2845    4.6231 C.3      1 ZINC000512239524    0.1500
15     C15     6.1770   -7.0284    3.3373 C.ar     1 ZINC000512239524   -0.1100
16     C16     5.1406   -7.6895    2.7050 C.ar     1 ZINC000512239524   -0.0900
17     C17     5.3737   -8.3718    1.5256 C.ar     1 ZINC000512239524   -0.1200
18     C18     6.6429   -8.3927    0.9783 C.ar     1 ZINC000512239524   -0.1100
19     C19     7.6790   -7.7309    1.6102 C.ar     1 ZINC000512239524   -0.1200
20     C20     7.4451   -7.0449    2.7873 C.ar     1 ZINC000512239524   -0.1100
21     C21     6.5745   -3.8669    4.2116 C.3      1 ZINC000512239524    0.0700
22     C22     8.0000   -4.2436    4.6200 C.3      1 ZINC000512239524   -0.1900
23     C23     7.6526   -4.0534    3.1422 C.3      1 ZINC000512239524   -0.2000
24     C24     4.5287   -2.7208    2.5294 C.3      1 ZINC000512239524   -0.1400
25     C25     4.1572   -1.2696    2.2320 C.3      1 ZINC000512239524    0.1100
26     C26     2.9636    1.0733   -1.9466 C.ar     1 ZINC000512239524   -0.0800
27     C27     4.3371    0.9024   -1.8757 C.ar     1 ZINC000512239524   -0.1400
28     C28     5.1569    1.7040   -2.6479 C.ar     1 ZINC000512239524    0.1000
29     N29     4.6473    2.6227   -3.4446 N.ar     1 ZINC000512239524   -0.4600
30     C30     3.3461    2.8149   -3.5390 C.ar     1 ZINC000512239524    0.0800
31     C31     2.4623    2.0468   -2.8009 C.ar     1 ZINC000512239524    0.0600
32     F32     1.1303    2.2486   -2.9021 F        1 ZINC000512239524   -0.1200
33     H33     0.8936   -1.5917   -1.3577 H        1 ZINC000512239524    0.0700
34     H34     1.0370   -0.6140   -2.8382 H        1 ZINC000512239524    0.0700
35     H35     2.4264   -1.5659   -2.2621 H        1 ZINC000512239524    0.0600
36     H36     3.7117   -0.3434    0.0555 H        1 ZINC000512239524    0.3900
37     H37     2.1779   -1.0001    4.2628 H        1 ZINC000512239524    0.0700
38     H38     0.8716   -1.5643    3.1893 H        1 ZINC000512239524    0.1000
39     H39     1.8574   -3.4066    4.5987 H        1 ZINC000512239524    0.0900
40     H40     2.0160   -3.7025    2.8501 H        1 ZINC000512239524    0.0800
41     H41     4.1785   -2.5097    4.6446 H        1 ZINC000512239524    0.1000
42     H42     6.8283   -6.2884    5.2300 H        1 ZINC000512239524    0.0900
43     H43     5.1160   -6.7710    5.1710 H        1 ZINC000512239524    0.1000
44     H44     4.1490   -7.6732    3.1325 H        1 ZINC000512239524    0.1300
45     H45     4.5642   -8.8889    1.0319 H        1 ZINC000512239524    0.1200
46     H46     6.8251   -8.9264    0.0572 H        1 ZINC000512239524    0.1200
47     H47     8.6707   -7.7474    1.1828 H        1 ZINC000512239524    0.1200
48     H48     8.2546   -6.5278    3.2810 H        1 ZINC000512239524    0.1200
49     H49     6.2431   -2.8496    4.4200 H        1 ZINC000512239524    0.1300
50     H50     8.6067   -3.4741    5.0974 H        1 ZINC000512239524    0.1100
51     H51     8.1709   -5.2616    4.9699 H        1 ZINC000512239524    0.1000
52     H52     7.5950   -4.9464    2.5198 H        1 ZINC000512239524    0.1100
53     H53     8.0308   -3.1589    2.6473 H        1 ZINC000512239524    0.1000
54     H54     5.6105   -2.8072    2.6312 H        1 ZINC000512239524    0.0900
55     H55     4.1879   -3.3557    1.7115 H        1 ZINC000512239524    0.0700
56     H56     4.5522   -0.9837    1.2572 H        1 ZINC000512239524    0.0800
57     H57     4.5739   -0.6205    3.0022 H        1 ZINC000512239524    0.0800
58     H58     4.7618    0.1524   -1.2249 H        1 ZINC000512239524    0.1400
59     H59     6.2282    1.5764   -2.5978 H        1 ZINC000512239524    0.1700
60     H60     2.9657    3.5775   -4.2024 H        1 ZINC000512239524    0.1700
@<TRIPOS>BOND
1     1     2     1
2     1     33    1
3     1     34    1
4     1     35    1
5     2     3     1
6     2     4     1
7     2     26    1
8     4     5     am
9     4     36    1
10    5     6     2
11    5     7     am
12    7     25    1
13    7     8     1
14    8     9     1
15    8     37    1
16    8     38    1
17    9     10    1
18    9     39    1
19    9     40    1
20    10    11    1
21    10    24    1
22    10    41    1
23    11    12    2
24    11    13    am
25    13    14    1
26    13    21    1
27    14    15    1
28    14    42    1
29    14    43    1
30    15    20    ar
31    15    16    ar
32    16    17    ar
33    16    44    1
34    17    18    ar
35    17    45    1
36    18    19    ar
37    18    46    1
38    19    20    ar
39    19    47    1
40    20    48    1
41    21    23    1
42    21    22    1
43    21    49    1
44    22    23    1
45    22    50    1
46    22    51    1
47    23    52    1
48    23    53    1
49    24    25    1
50    24    54    1
51    24    55    1
52    25    56    1
53    25    57    1
54    26    31    ar
55    26    27    ar
56    27    28    ar
57    27    58    1
58    28    29    ar
59    28    59    1
60    29    30    ar
61    30    31    ar
62    30    60    1
63    31    32    1
@<TRIPOS>SUBSTRUCTURE
1   ZINC000512239524 1     RESIDUE    1   A     ZIN   1
@<TRIPOS>MOLECULE
ZINC000461678839
57	60	1	0	0
SMALL
USER_CHARGES
@<TRIPOS>ATOM
1      C1     -0.5168    1.2178   -0.4396 C.3      1 ZINC000461678839   -0.1500
2      C2     -0.2259   -0.2795   -0.3197 C.3      1 ZINC000461678839   -0.0900
3      H3      0.4775   -0.5685   -1.1006 H        1 ZINC000461678839    0.0700
4      C4     -1.5424   -1.0656   -0.5111 C.3      1 ZINC000461678839   -0.1100
5      C5     -1.2113   -2.4992   -0.8298 C.3      1 ZINC000461678839   -0.1200
6      C6     -1.1369   -3.3904    0.4229 C.3      1 ZINC000461678839    0.0600
7      N7     -0.4380   -2.7486    1.5580 N.3      1 ZINC000461678839   -0.4600
8      C8     -0.1574   -3.6706    2.5539 C.2      1 ZINC000461678839    0.3700
9      N9      1.0134   -4.2007    2.8186 N.2      1 ZINC000461678839   -0.3100
10     N10     0.9102   -5.0156    3.8072 N.2      1 ZINC000461678839   -0.2500
11     C11    -0.3222   -5.0535    4.2282 C.2      1 ZINC000461678839    0.1700
12     C12    -0.8516   -5.8853    5.3680 C.3      1 ZINC000461678839    0.1500
13     O13    -0.7568   -5.1416    6.5845 O.3      1 ZINC000461678839   -0.3100
14     C14    -1.1954   -5.7523    7.7168 C.ar     1 ZINC000461678839    0.1400
15     C15    -1.7011   -7.0427    7.6586 C.ar     1 ZINC000461678839   -0.2000
16     C16    -2.1465   -7.6617    8.8105 C.ar     1 ZINC000461678839   -0.0700
17     C17    -2.0888   -6.9953   10.0217 C.ar     1 ZINC000461678839   -0.0700
18     Cl18   -2.6496   -7.7750   11.4678 Cl       1 ZINC000461678839   -0.0700
19     C19    -1.5843   -5.7083   10.0819 C.ar     1 ZINC000461678839   -0.0700
20     C20    -1.1327   -5.0881    8.9331 C.ar     1 ZINC000461678839   -0.1400
21     N21    -1.0452   -4.1941    3.4481 N.pl3    1 ZINC000461678839   -0.4600
22     C22    -2.4775   -3.9025    3.5464 C.3      1 ZINC000461678839    0.1200
23     C23    -2.6983   -2.7591    4.5387 C.3      1 ZINC000461678839   -0.1400
24     H24    -2.2350   -2.9925    5.4974 H        1 ZINC000461678839    0.0900
25     C25    -4.2108   -2.4840    4.7206 C.3      1 ZINC000461678839   -0.1500
26     C26    -4.2558   -0.9354    4.7674 C.3      1 ZINC000461678839    0.0500
27     O27    -3.2494   -0.5401    3.8106 O.3      1 ZINC000461678839   -0.3700
28     C28    -2.1363   -1.4396    3.9750 C.3      1 ZINC000461678839    0.0400
29     C29     0.7502   -2.0261    1.1724 C.3      1 ZINC000461678839    0.0700
30     C30     0.3739   -0.5450    0.9832 C.3      1 ZINC000461678839   -0.1100
31     H31     0.4108    1.7785   -0.3242 H        1 ZINC000461678839    0.0500
32     H32    -0.9483    1.4269   -1.4185 H        1 ZINC000461678839    0.0500
33     H33    -1.2201    1.5147    0.3385 H        1 ZINC000461678839    0.0600
34     H34    -2.1304   -1.0218    0.4057 H        1 ZINC000461678839    0.0700
35     H35    -2.1112   -0.6309   -1.3330 H        1 ZINC000461678839    0.0700
36     H36    -1.9757   -2.8958   -1.4980 H        1 ZINC000461678839    0.0800
37     H37    -0.2495   -2.5319   -1.3416 H        1 ZINC000461678839    0.0700
38     H38    -2.1509   -3.6420    0.7338 H        1 ZINC000461678839    0.0700
39     H39    -0.6139   -4.3116    0.1661 H        1 ZINC000461678839    0.0500
40     H40    -1.8942   -6.1401    5.1782 H        1 ZINC000461678839    0.0800
41     H41    -0.2640   -6.7993    5.4541 H        1 ZINC000461678839    0.1000
42     H42    -1.7470   -7.5630    6.7133 H        1 ZINC000461678839    0.1400
43     H43    -2.5403   -8.6664    8.7656 H        1 ZINC000461678839    0.1400
44     H44    -1.5397   -5.1898   11.0282 H        1 ZINC000461678839    0.1400
45     H45    -0.7389   -4.0835    8.9804 H        1 ZINC000461678839    0.1400
46     H46    -2.8572   -3.6119    2.5668 H        1 ZINC000461678839    0.1100
47     H47    -3.0062   -4.7908    3.8920 H        1 ZINC000461678839    0.1000
48     H48    -4.7801   -2.8642    3.8724 H        1 ZINC000461678839    0.0800
49     H49    -4.5745   -2.9120    5.6547 H        1 ZINC000461678839    0.0900
50     H50    -5.2374   -0.5706    4.4648 H        1 ZINC000461678839    0.1000
51     H51    -4.0012   -0.5739    5.7637 H        1 ZINC000461678839    0.0600
52     H52    -1.4148   -1.0130    4.6718 H        1 ZINC000461678839    0.0500
53     H53    -1.6610   -1.6213    3.0111 H        1 ZINC000461678839    0.1100
54     H54     1.5050   -2.1169    1.9535 H        1 ZINC000461678839    0.0900
55     H55     1.1382   -2.4297    0.2372 H        1 ZINC000461678839    0.0600
56     H56     1.2731    0.0625    1.0856 H        1 ZINC000461678839    0.0700
57     H57    -0.3324   -0.2588    1.7625 H        1 ZINC000461678839    0.0700
@<TRIPOS>BOND
1     1     2     1
2     1     31    1
3     1     32    1
4     1     33    1
5     2     3     1
6     2     30    1
7     2     4     1
8     4     5     1
9     4     34    1
10    4     35    1
11    5     6     1
12    5     36    1
13    5     37    1
14    6     7     1
15    6     38    1
16    6     39    1
17    7     8     1
18    7     29    1
19    8     21    1
20    8     9     2
21    9     10    1
22    10    11    2
23    11    12    1
24    11    21    1
25    12    13    1
26    12    40    1
27    12    41    1
28    13    14    1
29    14    20    ar
30    14    15    ar
31    15    16    ar
32    15    42    1
33    16    17    ar
34    16    43    1
35    17    18    1
36    17    19    ar
37    19    20    ar
38    19    44    1
39    20    45    1
40    21    22    1
41    22    23    1
42    22    46    1
43    22    47    1
44    23    24    1
45    23    28    1
46    23    25    1
47    25    26    1
48    25    48    1
49    25    49    1
50    26    27    1
51    26    50    1
52    26    51    1
53    27    28    1
54    28    52    1
55    28    53    1
56    29    30    1
57    29    54    1
58    29    55    1
59    30    56    1
60    30    57    1
@<TRIPOS>SUBSTRUCTURE
1   ZINC000461678839 1     RESIDUE    1   A     ZIN   1
@<TRIPOS>MOLECULE
ZINC000846412382
48	50	1	0	0
SMALL
USER_CHARGES
@<TRIPOS>ATOM
1      C1     -1.2932    1.4131    0.4363 C.3      1 ZINC000846412382   -0.1400
2      C2     -1.1253   -0.0834    0.3790 C.2      1 ZINC000846412382    0.0300
3      C3     -1.6389   -0.8225   -0.6124 C.2      1 ZINC000846412382   -0.2700
4      C4     -2.4105   -0.2863   -1.7403 C.2      1 ZINC000846412382    0.6000
5      O5     -2.6219    0.9093   -1.8192 O.2      1 ZINC000846412382   -0.5200
6      N6     -2.8847   -1.1185   -2.6885 N.am     1 ZINC000846412382   -0.7100
7      C7     -3.6547   -0.5834   -3.8142 C.3      1 ZINC000846412382    0.1200
8      H8     -4.2569    0.2593   -3.4746 H        1 ZINC000846412382    0.1000
9      C9     -2.6962   -0.1160   -4.9114 C.3      1 ZINC000846412382   -0.1700
10     C10    -4.5720   -1.6748   -4.3693 C.3      1 ZINC000846412382    0.1700
11     C11    -5.5305   -2.1422   -3.2721 C.3      1 ZINC000846412382   -0.1400
12     O12    -3.7826   -2.7797   -4.8145 O.3      1 ZINC000846412382   -0.5500
13     C13    -5.3641   -1.1244   -5.5272 C.ar     1 ZINC000846412382   -0.1200
14     C14    -5.6879    0.2189   -5.5667 C.ar     1 ZINC000846412382   -0.1100
15     C15    -6.4145    0.7238   -6.6288 C.ar     1 ZINC000846412382   -0.1200
16     C16    -6.8167   -0.1145   -7.6517 C.ar     1 ZINC000846412382   -0.1200
17     C17    -6.4921   -1.4577   -7.6126 C.ar     1 ZINC000846412382   -0.1200
18     C18    -5.7619   -1.9617   -6.5526 C.ar     1 ZINC000846412382   -0.1000
19     S19    -1.2621   -2.5209   -0.3777 S.3      1 ZINC000846412382    0.2000
20     C20    -0.3887   -2.1726    1.1082 C.ar     1 ZINC000846412382    0.1400
21     N21     0.2522   -2.9758    1.9649 N.ar     1 ZINC000846412382   -0.5300
22     C22     0.8475   -2.4926    3.0313 C.ar     1 ZINC000846412382    0.3900
23     C23     1.5555   -3.4420    3.9631 C.3      1 ZINC000846412382   -0.0900
24     N24     0.8468   -1.2026    3.3140 N.ar     1 ZINC000846412382   -0.5800
25     C25     0.2399   -0.3264    2.5280 C.ar     1 ZINC000846412382    0.5100
26     N26     0.2491    1.0183    2.8387 N.pl3    1 ZINC000846412382   -0.8300
27     C27    -0.4175   -0.7929    1.3547 C.ar     1 ZINC000846412382   -0.2500
28     H28    -0.4212    1.8937   -0.0072 H        1 ZINC000846412382    0.0800
29     H29    -2.1871    1.6999   -0.1175 H        1 ZINC000846412382    0.1100
30     H30    -1.3927    1.7280    1.4751 H        1 ZINC000846412382    0.0700
31     H31    -2.7162   -2.0717   -2.6257 H        1 ZINC000846412382    0.4000
32     H32    -2.0941   -0.9588   -5.2510 H        1 ZINC000846412382    0.0600
33     H33    -3.2691    0.2821   -5.7489 H        1 ZINC000846412382    0.0800
34     H34    -2.0427    0.6615   -4.5159 H        1 ZINC000846412382    0.0700
35     H35    -6.1327   -1.2995   -2.9325 H        1 ZINC000846412382    0.0700
36     H36    -6.1840   -2.9198   -3.6675 H        1 ZINC000846412382    0.0700
37     H37    -4.9576   -2.5403   -2.4346 H        1 ZINC000846412382    0.0700
38     H38    -3.1509   -2.5560   -5.5117 H        1 ZINC000846412382    0.3800
39     H39    -5.3736    0.8738   -4.7675 H        1 ZINC000846412382    0.1300
40     H40    -6.6681    1.7731   -6.6593 H        1 ZINC000846412382    0.1200
41     H41    -7.3850    0.2798   -8.4811 H        1 ZINC000846412382    0.1200
42     H42    -6.8067   -2.1127   -8.4116 H        1 ZINC000846412382    0.1200
43     H43    -5.5083   -3.0111   -6.5221 H        1 ZINC000846412382    0.1300
44     H44     2.5937   -3.5522    3.6497 H        1 ZINC000846412382    0.0900
45     H45     1.5225   -3.0468    4.9784 H        1 ZINC000846412382    0.0900
46     H46     1.0625   -4.4137    3.9353 H        1 ZINC000846412382    0.0900
47     H47     0.4031    1.3038    3.7529 H        1 ZINC000846412382    0.4100
48     H48     0.1017    1.6778    2.1429 H        1 ZINC000846412382    0.4200
@<TRIPOS>BOND
1     1     2     1
2     1     28    1
3     1     29    1
4     1     30    1
5     2     27    1
6     2     3     2
7     3     4     1
8     3     19    1
9     4     5     2
10    4     6     am
11    6     7     1
12    6     31    1
13    7     8     1
14    7     9     1
15    7     10    1
16    9     32    1
17    9     33    1
18    9     34    1
19    10    11    1
20    10    12    1
21    10    13    1
22    11    35    1
23    11    36    1
24    11    37    1
25    12    38    1
26    13    18    ar
27    13    14    ar
28    14    15    ar
29    14    39    1
30    15    16    ar
31    15    40    1
32    16    17    ar
33    16    41    1
34    17    18    ar
35    17    42    1
36    18    43    1
37    19    20    1
38    20    27    ar
39    20    21    ar
40    21    22    ar
41    22    23    1
42    22    24    ar
43    23    44    1
44    23    45    1
45    23    46    1
46    24    25    ar
47    25    26    1
48    25    27    ar
49    26    47    1
50    26    48    1
@<TRIPOS>SUBSTRUCTURE
1   ZINC000846412382 1     RESIDUE    1   A     ZIN   1
@<TRIPOS>MOLECULE
ZINC000892249927
55	58	1	0	0
SMALL
USER_CHARGES
@<TRIPOS>ATOM
1      O1      0.0021   -0.0041    0.0020 O.2      1 ZINC000892249927   -0.5300
2      C2     -0.0144    1.2086    0.0087 C.2      1 ZINC000892249927    0.5100
3      C3      1.2803    1.9798    0.0005 C.3      1 ZINC000892249927   -0.1400
4      C4      2.4566    1.0015   -0.0160 C.3      1 ZINC000892249927   -0.1000
5      C5      3.7710    1.7845   -0.0244 C.3      1 ZINC000892249927   -0.0800
6      C6      4.9296    0.8209   -0.0406 C.ar     1 ZINC000892249927   -0.0900
7      C7      5.4687    0.3681    1.1490 C.ar     1 ZINC000892249927   -0.1100
8      C8      6.5315   -0.5158    1.1341 C.ar     1 ZINC000892249927   -0.1100
9      C9      7.0548   -0.9473   -0.0704 C.ar     1 ZINC000892249927   -0.0500
10     C10     8.2137   -1.9105   -0.0866 C.3      1 ZINC000892249927   -0.1200
11     C11     8.6176   -2.5070   -1.4364 C.3      1 ZINC000892249927   -0.1800
12     C12     9.5035   -1.4523   -0.7701 C.3      1 ZINC000892249927   -0.1700
13     C13     6.5147   -0.4956   -1.2600 C.ar     1 ZINC000892249927   -0.1200
14     C14     5.4495    0.3853   -1.2451 C.ar     1 ZINC000892249927   -0.1100
15     N15    -1.1906    1.8666    0.0178 N.am     1 ZINC000892249927   -0.7300
16     C16    -2.4492    1.1169    0.0197 C.3      1 ZINC000892249927    0.1400
17     H17    -2.3292    0.2042    0.6034 H        1 ZINC000892249927    0.1000
18     C18    -2.8342    0.7582   -1.4188 C.3      1 ZINC000892249927   -0.1700
19     C19    -3.0753    2.0462   -2.2105 C.3      1 ZINC000892249927    0.0600
20     O20    -4.0953    2.8143   -1.5689 O.3      1 ZINC000892249927   -0.3700
21     C21    -3.7706    3.2187   -0.2373 C.3      1 ZINC000892249927    0.1400
22     H22    -2.8580    3.8145   -0.2507 H        1 ZINC000892249927    0.0700
23     C23    -4.8998    4.0415    0.3275 C.ar     1 ZINC000892249927   -0.1400
24     C24    -4.6341    5.1645    1.0955 C.ar     1 ZINC000892249927   -0.0700
25     C25    -5.7045    5.8916    1.5941 C.ar     1 ZINC000892249927   -0.1700
26     C26    -6.9914    5.4755    1.3108 C.ar     1 ZINC000892249927    0.1000
27     N27    -7.2068    4.4015    0.5762 N.ar     1 ZINC000892249927   -0.4900
28     C28    -6.2136    3.6893    0.0814 C.ar     1 ZINC000892249927    0.1300
29     C29    -3.5570    1.9770    0.6357 C.3      1 ZINC000892249927   -0.1500
30     H30     1.3211    2.6120   -0.8866 H        1 ZINC000892249927    0.0900
31     H31     1.3381    2.6024    0.8933 H        1 ZINC000892249927    0.0900
32     H32     2.4158    0.3693    0.8710 H        1 ZINC000892249927    0.0700
33     H33     2.3988    0.3789   -0.9088 H        1 ZINC000892249927    0.0700
34     H34     3.8118    2.4166   -0.9114 H        1 ZINC000892249927    0.0700
35     H35     3.8288    2.4070    0.8685 H        1 ZINC000892249927    0.0700
36     H36     5.0599    0.7052    2.0901 H        1 ZINC000892249927    0.1200
37     H37     6.9532   -0.8690    2.0636 H        1 ZINC000892249927    0.1200
38     H38     8.3089   -2.5462    0.7937 H        1 ZINC000892249927    0.1100
39     H39     8.9787   -3.5354   -1.4443 H        1 ZINC000892249927    0.1000
40     H40     8.0452   -2.2027   -2.3127 H        1 ZINC000892249927    0.1000
41     H41     9.5139   -0.4543   -1.2081 H        1 ZINC000892249927    0.1000
42     H42    10.4474   -1.7870   -0.3398 H        1 ZINC000892249927    0.1000
43     H43     6.9233   -0.8330   -2.2011 H        1 ZINC000892249927    0.1200
44     H44     5.0276    0.7382   -2.1746 H        1 ZINC000892249927    0.1200
45     H45    -1.2037    2.8365    0.0232 H        1 ZINC000892249927    0.4000
46     H46    -2.0260    0.1920   -1.8818 H        1 ZINC000892249927    0.0800
47     H47    -3.7442    0.1582   -1.4136 H        1 ZINC000892249927    0.0800
48     H48    -2.1536    2.6267   -2.2497 H        1 ZINC000892249927    0.0500
49     H49    -3.3912    1.7965   -3.2234 H        1 ZINC000892249927    0.1000
50     H50    -3.6175    5.4658    1.3011 H        1 ZINC000892249927    0.1300
51     H51    -5.5345    6.7717    2.1965 H        1 ZINC000892249927    0.1400
52     H52    -7.8305    6.0360    1.6956 H        1 ZINC000892249927    0.1600
53     H53    -6.4291    2.8156   -0.5159 H        1 ZINC000892249927    0.1600
54     H54    -4.4815    1.4014    0.6829 H        1 ZINC000892249927    0.0900
55     H55    -3.2662    2.2838    1.6404 H        1 ZINC000892249927    0.0800
@<TRIPOS>BOND
1     1     2     2
2     2     3     1
3     2     15    am
4     3     4     1
5     3     30    1
6     3     31    1
7     4     5     1
8     4     32    1
9     4     33    1
10    5     6     1
11    5     34    1
12    5     35    1
13    6     14    ar
14    6     7     ar
15    7     8     ar
16    7     36    1
17    8     9     ar
18    8     37    1
19    9     10    1
20    9     13    ar
21    10    12    1
22    10    11    1
23    10    38    1
24    11    12    1
25    11    39    1
26    11    40    1
27    12    41    1
28    12    42    1
29    13    14    ar
30    13    43    1
31    14    44    1
32    15    16    1
33    15    45    1
34    16    17    1
35    16    29    1
36    16    18    1
37    18    19    1
38    18    46    1
39    18    47    1
40    19    20    1
41    19    48    1
42    19    49    1
43    20    21    1
44    21    22    1
45    21    23    1
46    21    29    1
47    23    28    ar
48    23    24    ar
49    24    25    ar
50    24    50    1
51    25    26    ar
52    25    51    1
53    26    27    ar
54    26    52    1
55    27    28    ar
56    28    53    1
57    29    54    1
58    29    55    1
@<TRIPOS>SUBSTRUCTURE
1   ZINC000892249927 1     RESIDUE    1   A     ZIN   1
@<TRIPOS>MOLECULE
ZINC001193456967
48	50	1	0	0
SMALL
USER_CHARGES
@<TRIPOS>ATOM
1      C1     -0.9199    0.8630   -1.0908 C.3      1 ZINC001193456967   -0.1400
2      C2     -0.6072   -0.6092   -1.1665 C.ar     1 ZINC001193456967    0.0300
3      C3     -0.1117   -1.1512   -2.3375 C.ar     1 ZINC001193456967   -0.1400
4      C4      0.1751   -2.5019   -2.4069 C.ar     1 ZINC001193456967    0.0300
5      C5     -0.0332   -3.3101   -1.3053 C.ar     1 ZINC001193456967   -0.6900
6      S6      0.3318   -5.0316   -1.3939 S.o2     1 ZINC001193456967    2.7100
7      O7     -0.4601   -5.6616   -0.3964 O.2      1 ZINC001193456967   -0.9300
8      O8      0.2739   -5.3837   -2.7694 O.2      1 ZINC001193456967   -0.9400
9      N9      1.9095   -5.2228   -0.9284 N.am     1 ZINC001193456967   -1.0000
10     C10     3.0804   -5.1824   -1.8233 C.3      1 ZINC001193456967    0.1100
11     C11     4.1724   -5.9956   -1.0845 C.3      1 ZINC001193456967   -0.1200
12     C12     3.9106   -5.5987    0.3924 C.3      1 ZINC001193456967   -0.0500
13     H13     4.3920   -4.6495    0.6278 H        1 ZINC001193456967    0.1000
14     C14     4.3850   -6.6811    1.3275 C.ar     1 ZINC001193456967   -0.0800
15     C15     4.1702   -8.0098    1.0116 C.ar     1 ZINC001193456967   -0.0800
16     C16     4.6047   -9.0032    1.8684 C.ar     1 ZINC001193456967   -0.1500
17     C17     5.2558   -8.6675    3.0433 C.ar     1 ZINC001193456967    0.1000
18     F18     5.6814   -9.6379    3.8814 F        1 ZINC001193456967   -0.1400
19     C19     5.4707   -7.3365    3.3584 C.ar     1 ZINC001193456967   -0.1500
20     C20     5.0396   -6.3449    2.4978 C.ar     1 ZINC001193456967   -0.0800
21     C21     2.3750   -5.4545    0.4468 C.3      1 ZINC001193456967    0.1900
22     C22     1.9948   -4.2710    1.3388 C.3      1 ZINC001193456967   -0.1800
23     C23     1.7505   -6.7412    0.9903 C.3      1 ZINC001193456967   -0.1800
24     C24    -0.5276   -2.7678   -0.1335 C.ar     1 ZINC001193456967    0.0400
25     C25    -0.8107   -1.4168   -0.0629 C.ar     1 ZINC001193456967   -0.0600
26     N26    -1.3400   -0.8361    1.1915 N.pl3    1 ZINC001193456967    0.0200
27     O27    -0.9866    0.2746    1.5451 O.2      1 ZINC001193456967   -0.1400
28     O28    -2.1289   -1.4690    1.8702 O.2      1 ZINC001193456967   -0.1500
29     H29    -0.0688    1.3938   -0.6642 H        1 ZINC001193456967    0.1100
30     H30    -1.1206    1.2438   -2.0922 H        1 ZINC001193456967    0.0900
31     H31    -1.7964    1.0164   -0.4613 H        1 ZINC001193456967    0.0800
32     H32     0.0511   -0.5196   -3.1983 H        1 ZINC001193456967    0.1600
33     H33     0.5617   -2.9255   -3.3221 H        1 ZINC001193456967    0.1600
34     H34     2.8429   -5.6478   -2.7799 H        1 ZINC001193456967    0.0900
35     H35     3.4089   -4.1538   -1.9721 H        1 ZINC001193456967    0.0700
36     H36     4.0297   -7.0661   -1.2325 H        1 ZINC001193456967    0.0900
37     H37     5.1693   -5.6885   -1.4008 H        1 ZINC001193456967    0.0900
38     H38     3.6623   -8.2714    0.0951 H        1 ZINC001193456967    0.1400
39     H39     4.4362  -10.0411    1.6217 H        1 ZINC001193456967    0.1400
40     H40     5.9782   -7.0735    4.2748 H        1 ZINC001193456967    0.1400
41     H41     5.2074   -5.3066    2.7432 H        1 ZINC001193456967    0.1300
42     H42     2.4277   -3.3566    0.9332 H        1 ZINC001193456967    0.0700
43     H43     0.9095   -4.1754    1.3724 H        1 ZINC001193456967    0.0600
44     H44     2.3762   -4.4380    2.3461 H        1 ZINC001193456967    0.0800
45     H45     2.2085   -6.9913    1.9473 H        1 ZINC001193456967    0.0800
46     H46     0.6791   -6.5953    1.1274 H        1 ZINC001193456967    0.0900
47     H47     1.9191   -7.5536    0.2834 H        1 ZINC001193456967    0.0700
48     H48    -0.6900   -3.3993    0.7274 H        1 ZINC001193456967    0.1600
@<TRIPOS>BOND
1     1     2     1
2     1     29    1
3     1     30    1
4     1     31    1
5     2     25    ar
6     2     3     ar
7     3     4     ar
8     3     32    1
9     4     5     ar
10    4     33    1
11    5     6     1
12    5     24    ar
13    6     7     2
14    6     8     2
15    6     9     am
16    9     21    1
17    9     10    1
18    10    11    1
19    10    34    1
20    10    35    1
21    11    12    1
22    11    36    1
23    11    37    1
24    12    13    1
25    12    14    1
26    12    21    1
27    14    20    ar
28    14    15    ar
29    15    16    ar
30    15    38    1
31    16    17    ar
32    16    39    1
33    17    18    1
34    17    19    ar
35    19    20    ar
36    19    40    1
37    20    41    1
38    21    22    1
39    21    23    1
40    22    42    1
41    22    43    1
42    22    44    1
43    23    45    1
44    23    46    1
45    23    47    1
46    24    25    ar
47    24    48    1
48    25    26    1
49    26    27    2
50    26    28    2
@<TRIPOS>SUBSTRUCTURE
1   ZINC001193456967 1     RESIDUE    1   A     ZIN   1
@<TRIPOS>MOLECULE
ZINC000074782190
52	53	1	0	0
SMALL
USER_CHARGES
@<TRIPOS>ATOM
1      C1      0.2631    1.5875   -0.1811 C.3      1 ZINC000074782190   -0.1100
2      C2      0.1977    0.0824   -0.2189 C.ar     1 ZINC000074782190   -0.1200
3      C3      0.2128   -0.5799   -1.4309 C.ar     1 ZINC000074782190   -0.0800
4      C4      0.1523   -1.9610   -1.4663 C.ar     1 ZINC000074782190   -0.1500
5      C5      0.0770   -2.6822   -0.2893 C.ar     1 ZINC000074782190   -0.0900
6      C6      0.0621   -2.0245    0.9256 C.ar     1 ZINC000074782190   -0.2100
7      C7      0.1280   -0.6395    0.9640 C.ar     1 ZINC000074782190    0.1300
8      O8      0.1134    0.0099    2.1578 O.3      1 ZINC000074782190   -0.3000
9      C9     -0.0573   -0.7902    3.3294 C.3      1 ZINC000074782190    0.0700
10     H10     0.4668   -1.7374    3.2021 H        1 ZINC000074782190    0.0800
11     C11    -1.5472   -1.0576    3.5518 C.3      1 ZINC000074782190   -0.1800
12     C12     0.5143   -0.0499    4.5402 C.3      1 ZINC000074782190    0.1400
13     N13     1.9409    0.2062    4.3273 N.am     1 ZINC000074782190   -0.7500
14     C14     2.6578    0.8509    5.2691 C.2      1 ZINC000074782190    0.7100
15     O15     2.1463    1.1327    6.3355 O.2      1 ZINC000074782190   -0.5900
16     N16     3.9416    1.1832    5.0288 N.am     1 ZINC000074782190   -0.6200
17     C17     4.6872    1.9803    6.0060 C.3      1 ZINC000074782190    0.1800
18     C18     5.4733    1.0634    6.9073 C.ar     1 ZINC000074782190   -0.1600
19     C19     4.8780    0.4965    8.0235 C.ar     1 ZINC000074782190   -0.0500
20     C20     5.6397   -0.3415    8.8239 C.ar     1 ZINC000074782190   -0.1800
21     C21     6.9575   -0.5820    8.4846 C.ar     1 ZINC000074782190    0.1000
22     N22     7.4910   -0.0252    7.4147 N.ar     1 ZINC000074782190   -0.4900
23     C23     6.7955    0.7723    6.6282 C.ar     1 ZINC000074782190    0.1100
24     C24     4.5916    0.7473    3.7903 C.3      1 ZINC000074782190    0.1300
25     C25     4.5414   -0.7791    3.6979 C.3      1 ZINC000074782190   -0.1800
26     C26     3.8625    1.3551    2.5904 C.3      1 ZINC000074782190   -0.1800
27     H27     1.3050    1.9050   -0.1392 H        1 ZINC000074782190    0.0700
28     H28    -0.2049    1.9942   -1.0777 H        1 ZINC000074782190    0.0600
29     H29    -0.2635    1.9521    0.7008 H        1 ZINC000074782190    0.0700
30     H30     0.2716   -0.0186   -2.3517 H        1 ZINC000074782190    0.1300
31     H31     0.1635   -2.4769   -2.4150 H        1 ZINC000074782190    0.1200
32     H32     0.0295   -3.7608   -0.3196 H        1 ZINC000074782190    0.1200
33     H33     0.0029   -2.5884    1.8448 H        1 ZINC000074782190    0.1300
34     H34    -2.0713   -0.1104    3.6791 H        1 ZINC000074782190    0.0700
35     H35    -1.9544   -1.5851    2.6892 H        1 ZINC000074782190    0.0700
36     H36    -1.6774   -1.6679    4.4455 H        1 ZINC000074782190    0.0800
37     H37    -0.0098    0.8973    4.6676 H        1 ZINC000074782190    0.0800
38     H38     0.3841   -0.6602    5.4340 H        1 ZINC000074782190    0.0900
39     H39     2.3696   -0.0883    3.5085 H        1 ZINC000074782190    0.4100
40     H40     5.3705    2.6496    5.4834 H        1 ZINC000074782190    0.0900
41     H41     3.9900    2.5673    6.6039 H        1 ZINC000074782190    0.1000
42     H42     3.8456    0.7029    8.2643 H        1 ZINC000074782190    0.1400
43     H43     5.2085   -0.8000    9.7015 H        1 ZINC000074782190    0.1300
44     H44     7.5575   -1.2331    9.1030 H        1 ZINC000074782190    0.1600
45     H45     7.2667    1.2100    5.7605 H        1 ZINC000074782190    0.1500
46     H46     5.6304    1.0774    3.7896 H        1 ZINC000074782190    0.1000
47     H47     3.5048   -1.1037    3.6076 H        1 ZINC000074782190    0.0600
48     H48     5.1029   -1.1089    2.8238 H        1 ZINC000074782190    0.0700
49     H49     4.9808   -1.2121    4.5966 H        1 ZINC000074782190    0.0600
50     H50     3.9963    2.4369    2.5938 H        1 ZINC000074782190    0.0700
51     H51     4.2717    0.9412    1.6688 H        1 ZINC000074782190    0.0700
52     H52     2.7999    1.1202    2.6538 H        1 ZINC000074782190    0.0700
@<TRIPOS>BOND
1     1     2     1
2     1     27    1
3     1     28    1
4     1     29    1
5     2     7     ar
6     2     3     ar
7     3     4     ar
8     3     30    1
9     4     5     ar
10    4     31    1
11    5     6     ar
12    5     32    1
13    6     7     ar
14    6     33    1
15    7     8     1
16    8     9     1
17    9     10    1
18    9     11    1
19    9     12    1
20    11    34    1
21    11    35    1
22    11    36    1
23    12    13    1
24    12    37    1
25    12    38    1
26    13    14    am
27    13    39    1
28    14    15    2
29    14    16    am
30    16    17    1
31    16    24    1
32    17    18    1
33    17    40    1
34    17    41    1
35    18    23    ar
36    18    19    ar
37    19    20    ar
38    19    42    1
39    20    21    ar
40    20    43    1
41    21    22    ar
42    21    44    1
43    22    23    ar
44    23    45    1
45    24    25    1
46    24    26    1
47    24    46    1
48    25    47    1
49    25    48    1
50    25    49    1
51    26    50    1
52    26    51    1
53    26    52    1
@<TRIPOS>SUBSTRUCTURE
1   ZINC000074782190 1     RESIDUE    1   A     ZIN   1
@<TRIPOS>MOLECULE
ZINC000337709254
45	46	1	0	0
SMALL
USER_CHARGES
@<TRIPOS>ATOM
1      C1     -0.0225    1.8097    0.0120 C.3      1 ZINC000337709254   -0.6700
2      S2      0.0021   -0.0041    0.0020 S.o2     1 ZINC000337709254    2.6100
3      O3      0.8448   -0.4970    1.0346 O.2      1 ZINC000337709254   -0.9500
4      O4     -1.3093   -0.5195   -0.1821 O.2      1 ZINC000337709254   -0.9500
5      N5      0.7961   -0.3989   -1.3965 N.am     1 ZINC000337709254   -1.1200
6      C6      2.2072   -0.0423   -1.5633 C.3      1 ZINC000337709254    0.1200
7      C7      2.7954   -0.8247   -2.7393 C.3      1 ZINC000337709254   -0.1100
8      H8      2.6295   -1.8938   -2.6061 H        1 ZINC000337709254    0.1100
9      C9      2.1768   -0.3424   -4.0749 C.3      1 ZINC000337709254   -0.1200
10     C10     3.2516   -0.7457   -5.1147 C.3      1 ZINC000337709254   -0.1200
11     C11     4.5910   -0.4733   -4.3994 C.3      1 ZINC000337709254   -0.1400
12     C12     4.3017   -0.5263   -2.8869 C.3      1 ZINC000337709254    0.1500
13     H13     4.8900   -1.3173   -2.4217 H        1 ZINC000337709254    0.1000
14     N14     4.6193    0.7638   -2.2698 N.am     1 ZINC000337709254   -0.7200
15     C15     5.8753    1.0212   -1.8544 C.2      1 ZINC000337709254    0.5300
16     O16     6.7428    0.1847   -1.9916 O.2      1 ZINC000337709254   -0.5100
17     C17     6.2020    2.3483   -1.2196 C.3      1 ZINC000337709254    0.0200
18     C18     5.9100    3.4339   -2.1698 C.1      1 ZINC000337709254    0.2000
19     N19     5.6846    4.2717   -2.9032 N.1      1 ZINC000337709254   -0.3900
20     C20     5.3591    2.5322    0.0461 C.3      1 ZINC000337709254   -0.1500
21     C21     5.7538    3.8456    0.7264 C.3      1 ZINC000337709254    0.0600
22     O22     7.1515    3.8254    1.0235 O.3      1 ZINC000337709254   -0.3700
23     C23     7.9908    3.7031   -0.1266 C.3      1 ZINC000337709254    0.0600
24     C24     7.6859    2.3839   -0.8412 C.3      1 ZINC000337709254   -0.1300
25     H25     1.0001    2.1870    0.0043 H        1 ZINC000337709254    0.1300
26     H26    -0.5497    2.1708   -0.8711 H        1 ZINC000337709254    0.1300
27     H27    -0.5327    2.1613    0.9088 H        1 ZINC000337709254    0.1300
28     H28     0.3269   -0.8662   -2.1053 H        1 ZINC000337709254    0.4200
29     H29     2.2912    1.0265   -1.7598 H        1 ZINC000337709254    0.0600
30     H30     2.7542   -0.2885   -0.6532 H        1 ZINC000337709254    0.0900
31     H31     1.2360   -0.8561   -4.2726 H        1 ZINC000337709254    0.0800
32     H32     2.0338    0.7382   -4.0664 H        1 ZINC000337709254    0.0700
33     H33     3.1614   -1.8024   -5.3663 H        1 ZINC000337709254    0.0700
34     H34     3.1655   -0.1307   -6.0105 H        1 ZINC000337709254    0.0700
35     H35     5.3190   -1.2397   -4.6655 H        1 ZINC000337709254    0.0800
36     H36     4.9677    0.5117   -4.6747 H        1 ZINC000337709254    0.0700
37     H37     3.9255    1.4328   -2.1600 H        1 ZINC000337709254    0.4000
38     H38     4.3028    2.5635   -0.2211 H        1 ZINC000337709254    0.0900
39     H39     5.5389    1.7007    0.7275 H        1 ZINC000337709254    0.1100
40     H40     5.5360    4.6801    0.0598 H        1 ZINC000337709254    0.0500
41     H41     5.1874    3.9610    1.6505 H        1 ZINC000337709254    0.1100
42     H42     7.8022    4.5357   -0.8044 H        1 ZINC000337709254    0.0500
43     H43     9.0358    3.7157    0.1830 H        1 ZINC000337709254    0.1100
44     H44     7.9127    1.5494   -0.1777 H        1 ZINC000337709254    0.1100
45     H45     8.2936    2.3092   -1.7429 H        1 ZINC000337709254    0.0900
@<TRIPOS>BOND
1     1     2     1
2     1     25    1
3     1     26    1
4     1     27    1
5     2     3     2
6     2     4     2
7     2     5     am
8     5     6     1
9     5     28    1
10    6     7     1
11    6     29    1
12    6     30    1
13    7     8     1
14    7     12    1
15    7     9     1
16    9     10    1
17    9     31    1
18    9     32    1
19    10    11    1
20    10    33    1
21    10    34    1
22    11    12    1
23    11    35    1
24    11    36    1
25    12    13    1
26    12    14    1
27    14    15    am
28    14    37    1
29    15    16    2
30    15    17    1
31    17    24    1
32    17    18    1
33    17    20    1
34    18    19    3
35    20    21    1
36    20    38    1
37    20    39    1
38    21    22    1
39    21    40    1
40    21    41    1
41    22    23    1
42    23    24    1
43    23    42    1
44    23    43    1
45    24    44    1
46    24    45    1
@<TRIPOS>SUBSTRUCTURE
1   ZINC000337709254 1     RESIDUE    1   A     ZIN   1
@<TRIPOS>MOLECULE
ZINC000001174632
48	51	1	0	0
SMALL
USER_CHARGES
@<TRIPOS>ATOM
1      C1     -1.7621   -0.1101    0.3485 C.3      1 ZINC000001174632    0.0400
2      O2     -0.4655   -0.6766    0.0231 O.3      1 ZINC000001174632   -0.3500
3      C3      0.2864   -1.1149    1.0521 C.2      1 ZINC000001174632    0.5200
4      O4     -0.1303   -1.0260    2.1901 O.2      1 ZINC000001174632   -0.5200
5      C5      1.6137   -1.7019    0.7971 C.ar     1 ZINC000001174632   -0.2000
6      C6      2.0431   -1.9265   -0.5131 C.ar     1 ZINC000001174632   -0.0200
7      C7      3.2860   -2.4754   -0.7447 C.ar     1 ZINC000001174632   -0.1800
8      C8      4.1141   -2.8066    0.3157 C.ar     1 ZINC000001174632   -0.0300
9      C9      3.7046   -2.5914    1.6161 C.ar     1 ZINC000001174632   -0.1900
10     C10     2.4577   -2.0337    1.8699 C.ar     1 ZINC000001174632    0.2600
11     N11     2.0434   -1.8158    3.1773 N.pl3    1 ZINC000001174632   -0.6500
12     C12     2.7955   -2.2871    4.2224 C.2      1 ZINC000001174632    0.2300
13     C13     3.3298   -1.5151    5.2361 C.2      1 ZINC000001174632   -0.1800
14     C14     3.1872   -0.0488    5.3755 C.ar     1 ZINC000001174632   -0.0600
15     C15     3.7464    0.8024    4.4212 C.ar     1 ZINC000001174632   -0.0600
16     C16     3.6113    2.1684    4.5548 C.ar     1 ZINC000001174632   -0.1500
17     C17     2.9207    2.6970    5.6367 C.ar     1 ZINC000001174632    0.1400
18     O18     2.7898    4.0441    5.7647 O.3      1 ZINC000001174632   -0.3200
19     C19     2.0670    4.5205    6.9017 C.3      1 ZINC000001174632    0.0300
20     C20     2.3630    1.8538    6.5880 C.ar     1 ZINC000001174632   -0.2100
21     C21     2.4883    0.4865    6.4585 C.ar     1 ZINC000001174632   -0.0500
22     C22     4.0628   -2.3985    6.1518 C.2      1 ZINC000001174632    0.4500
23     O23     4.6599   -2.0638    7.1562 O.2      1 ZINC000001174632   -0.4100
24     C24     3.9355   -3.7822    5.6168 C.ar     1 ZINC000001174632   -0.1600
25     C25     4.4119   -5.0042    6.0528 C.ar     1 ZINC000001174632   -0.0500
26     C26     4.1265   -6.1579    5.3292 C.ar     1 ZINC000001174632   -0.1100
27     C27     3.3708   -6.0864    4.1791 C.ar     1 ZINC000001174632   -0.0900
28     C28     2.8865   -4.8630    3.7313 C.ar     1 ZINC000001174632   -0.0800
29     C29     3.1588   -3.7065    4.4472 C.ar     1 ZINC000001174632   -0.0600
30     H30    -1.6283    0.7523    1.0016 H        1 ZINC000001174632    0.0700
31     H31    -2.2625    0.2025   -0.5680 H        1 ZINC000001174632    0.1100
32     H32    -2.3691   -0.8597    0.8563 H        1 ZINC000001174632    0.0700
33     H33     1.4018   -1.6707   -1.3435 H        1 ZINC000001174632    0.1400
34     H34     3.6161   -2.6487   -1.7584 H        1 ZINC000001174632    0.1300
35     H35     5.0861   -3.2362    0.1235 H        1 ZINC000001174632    0.1300
36     H36     4.3557   -2.8530    2.4371 H        1 ZINC000001174632    0.1300
37     H37     1.2220   -1.3301    3.3512 H        1 ZINC000001174632    0.4300
38     H38     4.2844    0.3919    3.5795 H        1 ZINC000001174632    0.1300
39     H39     4.0437    2.8277    3.8168 H        1 ZINC000001174632    0.1300
40     H40     1.0503    4.1285    6.8763 H        1 ZINC000001174632    0.0600
41     H41     2.5626    4.1864    7.8133 H        1 ZINC000001174632    0.0600
42     H42     2.0370    5.6099    6.8828 H        1 ZINC000001174632    0.1000
43     H43     1.8268    2.2690    7.4285 H        1 ZINC000001174632    0.1300
44     H44     2.0538   -0.1689    7.1988 H        1 ZINC000001174632    0.1300
45     H45     5.0050   -5.0635    6.9534 H        1 ZINC000001174632    0.1400
46     H46     4.4988   -7.1128    5.6699 H        1 ZINC000001174632    0.1400
47     H47     3.1540   -6.9860    3.6223 H        1 ZINC000001174632    0.1400
48     H48     2.2948   -4.8134    2.8292 H        1 ZINC000001174632    0.1300
@<TRIPOS>BOND
1     1     2     1
2     1     30    1
3     1     31    1
4     1     32    1
5     2     3     1
6     3     4     2
7     3     5     1
8     5     10    ar
9     5     6     ar
10    6     7     ar
11    6     33    1
12    7     8     ar
13    7     34    1
14    8     9     ar
15    8     35    1
16    9     10    ar
17    9     36    1
18    10    11    1
19    11    12    1
20    11    37    1
21    12    29    1
22    12    13    2
23    13    14    1
24    13    22    1
25    14    21    ar
26    14    15    ar
27    15    16    ar
28    15    38    1
29    16    17    ar
30    16    39    1
31    17    18    1
32    17    20    ar
33    18    19    1
34    19    40    1
35    19    41    1
36    19    42    1
37    20    21    ar
38    20    43    1
39    21    44    1
40    22    23    2
41    22    24    1
42    24    29    ar
43    24    25    ar
44    25    26    ar
45    25    45    1
46    26    27    ar
47    26    46    1
48    27    28    ar
49    27    47    1
50    28    29    ar
51    28    48    1
@<TRIPOS>SUBSTRUCTURE
1   ZINC000001174632 1     RESIDUE    1   A     ZIN   1
@<TRIPOS>MOLECULE
ZINC000489403631
47	49	1	0	0
SMALL
USER_CHARGES
@<TRIPOS>ATOM
1      C1     -0.2142    0.8197   -0.2583 C.3      1 ZINC000489403631   -0.1100
2      C2     -0.1863   -0.6826   -0.1437 C.ar     1 ZINC000489403631   -0.0800
3      C3     -0.1400   -1.4610   -1.2829 C.ar     1 ZINC000489403631   -0.0900
4      C4     -0.1143   -2.8455   -1.1771 C.ar     1 ZINC000489403631    0.1200
5      N5     -0.0669   -3.6358   -2.3328 N.am     1 ZINC000489403631   -0.6600
6      C6      0.4679   -3.1405   -3.4664 C.2      1 ZINC000489403631    0.5100
7      O7      1.0048   -2.0529   -3.4590 O.2      1 ZINC000489403631   -0.4600
8      C8      0.3988   -3.9380   -4.7433 C.3      1 ZINC000489403631    0.1700
9      C9      1.1171   -5.2749   -4.5491 C.3      1 ZINC000489403631   -0.1700
10     C10    -1.0653   -4.1937   -5.1063 C.3      1 ZINC000489403631   -0.1700
11     N11     1.0458   -3.1883   -5.8229 N.pl3    1 ZINC000489403631   -0.3400
12     C12     1.4225   -3.6853   -7.0196 C.2      1 ZINC000489403631    0.1500
13     C13     1.9798   -2.6763   -7.7284 C.2      1 ZINC000489403631   -0.1900
14     N14     2.5308   -2.7753   -9.0986 N.pl3    1 ZINC000489403631    0.0700
15     O15     2.5060   -3.8400   -9.6896 O.2      1 ZINC000489403631   -0.1700
16     O16     3.0091   -1.7919   -9.6351 O.2      1 ZINC000489403631   -0.1600
17     C17     1.9425   -1.5231   -6.9377 C.2      1 ZINC000489403631    0.1000
18     N18     1.3773   -1.8275   -5.7976 N.2      1 ZINC000489403631   -0.2200
19     C19    -0.1352   -3.4460    0.0745 C.ar     1 ZINC000489403631   -0.1100
20     C20    -0.1815   -2.6663    1.2134 C.ar     1 ZINC000489403631   -0.1700
21     C21    -0.2014   -1.2833    1.1072 C.ar     1 ZINC000489403631    0.1000
22     O22    -0.2470   -0.5162    2.2288 O.3      1 ZINC000489403631   -0.2500
23     C23    -0.1605   -1.1398    3.4311 C.ar     1 ZINC000489403631    0.1400
24     C24     1.0075   -1.7958    3.8131 C.ar     1 ZINC000489403631   -0.2000
25     C25     1.0556   -2.4178    5.0436 C.ar     1 ZINC000489403631    0.1200
26     N26     0.0139   -2.3963    5.8535 N.ar     1 ZINC000489403631   -0.4900
27     C27    -1.1096   -1.7855    5.5275 C.ar     1 ZINC000489403631    0.1200
28     C28    -1.2353   -1.1353    4.3171 C.ar     1 ZINC000489403631   -0.1800
29     H29     0.8063    1.2027   -0.2636 H        1 ZINC000489403631    0.0700
30     H30    -0.7138    1.1042   -1.1844 H        1 ZINC000489403631    0.0700
31     H31    -0.7552    1.2389    0.5900 H        1 ZINC000489403631    0.0700
32     H32    -0.1242   -0.9933   -2.2563 H        1 ZINC000489403631    0.1500
33     H33    -0.4190   -4.5395   -2.3171 H        1 ZINC000489403631    0.4100
34     H34     0.6357   -5.8327   -3.7458 H        1 ZINC000489403631    0.1000
35     H35     1.0671   -5.8517   -5.4726 H        1 ZINC000489403631    0.0900
36     H36     2.1602   -5.0927   -4.2905 H        1 ZINC000489403631    0.0800
37     H37    -1.5771   -3.2413   -5.2446 H        1 ZINC000489403631    0.0800
38     H38    -1.1153   -4.7705   -6.0298 H        1 ZINC000489403631    0.0900
39     H39    -1.5467   -4.7515   -4.3030 H        1 ZINC000489403631    0.0900
40     H40     1.3012   -4.7057   -7.3520 H        1 ZINC000489403631    0.2000
41     H41     2.3118   -0.5487   -7.2212 H        1 ZINC000489403631    0.2100
42     H42    -0.1156   -4.5226    0.1574 H        1 ZINC000489403631    0.1300
43     H43    -0.1977   -3.1333    2.1871 H        1 ZINC000489403631    0.1300
44     H44     1.8634   -1.8175    3.1549 H        1 ZINC000489403631    0.1400
45     H45     1.9570   -2.9291    5.3478 H        1 ZINC000489403631    0.1600
46     H46    -1.9396   -1.7912    6.2185 H        1 ZINC000489403631    0.1700
47     H47    -2.1574   -0.6371    4.0565 H        1 ZINC000489403631    0.1500
@<TRIPOS>BOND
1     1     2     1
2     1     29    1
3     1     30    1
4     1     31    1
5     2     21    ar
6     2     3     ar
7     3     4     ar
8     3     32    1
9     4     5     1
10    4     19    ar
11    5     6     am
12    5     33    1
13    6     7     2
14    6     8     1
15    8     9     1
16    8     10    1
17    8     11    1
18    9     34    1
19    9     35    1
20    9     36    1
21    10    37    1
22    10    38    1
23    10    39    1
24    11    18    1
25    11    12    1
26    12    13    2
27    12    40    1
28    13    14    1
29    13    17    1
30    14    15    2
31    14    16    2
32    17    18    2
33    17    41    1
34    19    20    ar
35    19    42    1
36    20    21    ar
37    20    43    1
38    21    22    1
39    22    23    1
40    23    28    ar
41    23    24    ar
42    24    25    ar
43    24    44    1
44    25    26    ar
45    25    45    1
46    26    27    ar
47    27    28    ar
48    27    46    1
49    28    47    1
@<TRIPOS>SUBSTRUCTURE
1   ZINC000489403631 1     RESIDUE    1   A     ZIN   1
@<TRIPOS>MOLECULE
ZINC000482139334
43	47	1	0	0
SMALL
USER_CHARGES
@<TRIPOS>ATOM
1      O1      0.0021   -0.0041    0.0020 O.2      1 ZINC000482139334   -0.4800
2      C2     -0.0144    1.2085    0.0087 C.2      1 ZINC000482139334    0.5500
3      N3      1.1435    1.8982    0.0013 N.am     1 ZINC000482139334   -0.6100
4      C4      2.3532    1.2216   -0.0139 C.2      1 ZINC000482139334    0.4300
5      N5      3.5365    1.7797   -0.0169 N.2      1 ZINC000482139334   -0.4800
6      C6      4.4758    0.7979   -0.0323 C.2      1 ZINC000482139334    0.0400
7      C7      5.9470    0.9894   -0.0402 C.ar     1 ZINC000482139334   -0.0500
8      C8      6.7958   -0.1149   -0.0614 C.ar     1 ZINC000482139334   -0.0800
9      C9      8.1640    0.0688   -0.0692 C.ar     1 ZINC000482139334   -0.1300
10     C10     8.6939    1.3462   -0.0555 C.ar     1 ZINC000482139334   -0.0800
11     C11     7.8577    2.4478   -0.0339 C.ar     1 ZINC000482139334   -0.1600
12     C12     6.4861    2.2768   -0.0322 C.ar     1 ZINC000482139334    0.1300
13     F13     5.6695    3.3529   -0.0112 F        1 ZINC000482139334   -0.1200
14     C14     3.8213   -0.3874   -0.0386 C.2      1 ZINC000482139334   -0.0600
15     O15     2.5005   -0.1121   -0.0219 O.3      1 ZINC000482139334   -0.1800
16     C16    -1.3296    1.9442    0.0189 C.3      1 ZINC000482139334   -0.1800
17     H17    -1.3413    2.8787    0.5799 H        1 ZINC000482139334    0.1400
18     C18    -2.1939    1.8655   -1.2425 C.3      1 ZINC000482139334   -0.1200
19     C19    -2.6037    1.1085    0.0168 C.3      1 ZINC000482139334   -0.0500
20     C20    -2.5493   -0.4273    0.0742 C.3      1 ZINC000482139334   -0.0700
21     C21    -4.0301   -0.7981    0.3117 C.3      1 ZINC000482139334   -0.0900
22     C22    -4.6381    0.4095    0.9937 C.ar     1 ZINC000482139334   -0.0800
23     C23    -5.8171    0.5370    1.7077 C.ar     1 ZINC000482139334   -0.1100
24     C24    -6.1756    1.7569    2.2476 C.ar     1 ZINC000482139334   -0.1100
25     C25    -5.3546    2.8552    2.0746 C.ar     1 ZINC000482139334   -0.1200
26     C26    -4.1775    2.7307    1.3628 C.ar     1 ZINC000482139334   -0.1000
27     C27    -3.8152    1.5091    0.8208 C.ar     1 ZINC000482139334   -0.0700
28     H28     1.1304    2.8681    0.0067 H        1 ZINC000482139334    0.4400
29     H29     6.3841   -1.1134   -0.0715 H        1 ZINC000482139334    0.1300
30     H30     8.8223   -0.7873   -0.0857 H        1 ZINC000482139334    0.1400
31     H31     9.7651    1.4842   -0.0613 H        1 ZINC000482139334    0.1400
32     H32     8.2770    3.4430   -0.0226 H        1 ZINC000482139334    0.1400
33     H33     4.2718   -1.3689   -0.0511 H        1 ZINC000482139334    0.2200
34     H34    -2.7748    2.7479   -1.5108 H        1 ZINC000482139334    0.1200
35     H35    -1.8112    1.2815   -2.0796 H        1 ZINC000482139334    0.1100
36     H36    -2.1930   -0.8386   -0.8702 H        1 ZINC000482139334    0.0800
37     H37    -1.9274   -0.7628    0.9042 H        1 ZINC000482139334    0.0900
38     H38    -4.5295   -0.9869   -0.6385 H        1 ZINC000482139334    0.0800
39     H39    -4.1017   -1.6730    0.9578 H        1 ZINC000482139334    0.0800
40     H40    -6.4594   -0.3207    1.8429 H        1 ZINC000482139334    0.1200
41     H41    -7.0964    1.8523    2.8038 H        1 ZINC000482139334    0.1300
42     H42    -5.6334    3.8100    2.4954 H        1 ZINC000482139334    0.1300
43     H43    -3.5371    3.5899    1.2280 H        1 ZINC000482139334    0.1200
@<TRIPOS>BOND
1     1     2     2
2     2     3     am
3     2     16    1
4     3     4     1
5     3     28    1
6     4     15    1
7     4     5     2
8     5     6     1
9     6     7     1
10    6     14    2
11    7     12    ar
12    7     8     ar
13    8     9     ar
14    8     29    1
15    9     10    ar
16    9     30    1
17    10    11    ar
18    10    31    1
19    11    12    ar
20    11    32    1
21    12    13    1
22    14    15    1
23    14    33    1
24    16    17    1
25    16    19    1
26    16    18    1
27    18    19    1
28    18    34    1
29    18    35    1
30    19    27    1
31    19    20    1
32    20    21    1
33    20    36    1
34    20    37    1
35    21    22    1
36    21    38    1
37    21    39    1
38    22    27    ar
39    22    23    ar
40    23    24    ar
41    23    40    1
42    24    25    ar
43    24    41    1
44    25    26    ar
45    25    42    1
46    26    27    ar
47    26    43    1
@<TRIPOS>SUBSTRUCTURE
1   ZINC000482139334 1     RESIDUE    1   A     ZIN   1
@<TRIPOS>MOLECULE
ZINC001085817863
50	52	1	0	0
SMALL
USER_CHARGES
@<TRIPOS>ATOM
1      C1      1.2272    0.1364    0.6047 C.3      1 ZINC001085817863   -0.1400
2      C2      0.7009   -1.2965    0.5015 C.3      1 ZINC001085817863   -0.0700
3      C3     -0.7746   -1.2690    0.1962 C.2      1 ZINC001085817863    0.1100
4      C4     -1.7825   -1.2446    1.1204 C.2      1 ZINC001085817863   -0.2400
5      C5     -1.6395   -1.2395    2.5860 C.2      1 ZINC001085817863    0.6000
6      O6     -0.5395   -1.3620    3.0902 O.2      1 ZINC001085817863   -0.5300
7      N7     -2.7277   -1.0990    3.3688 N.am     1 ZINC001085817863   -0.6100
8      C8     -4.0632   -1.0665    2.7676 C.3      1 ZINC001085817863    0.0800
9      C9     -2.5749   -0.9788    4.8208 C.3      1 ZINC001085817863    0.1300
10     C10    -2.5797    0.4999    5.2135 C.3      1 ZINC001085817863    0.0100
11     H11    -3.5755    0.9419    5.1789 H        1 ZINC001085817863    0.0800
12     C12    -1.8278    0.7881    6.5205 C.3      1 ZINC001085817863   -0.1400
13     C13    -1.3530    2.0400    5.7696 C.3      1 ZINC001085817863    0.0000
14     N14    -1.5580    1.2979    4.5103 N.3      1 ZINC001085817863   -0.4400
15     C15    -2.1702    2.1560    3.4872 C.3      1 ZINC001085817863    0.0700
16     C16    -1.2045    3.2474    3.1035 C.ar     1 ZINC001085817863   -0.1300
17     C17    -1.1920    4.4488    3.7952 C.ar     1 ZINC001085817863   -0.0700
18     C18    -0.2859    5.4242    3.4074 C.ar     1 ZINC001085817863   -0.1700
19     C19     0.5685    5.1683    2.3520 C.ar     1 ZINC001085817863    0.1000
20     N20     0.5286    4.0133    1.7165 N.ar     1 ZINC001085817863   -0.4800
21     C21    -0.3160    3.0611    2.0611 C.ar     1 ZINC001085817863    0.1200
22     C22    -3.0347   -1.2238    0.3567 C.2      1 ZINC001085817863   -0.1900
23     C23    -2.6859   -1.2370   -0.9421 C.2      1 ZINC001085817863   -0.0200
24     N24    -1.3246   -1.2584   -1.0329 N.pl3    1 ZINC001085817863   -0.4400
25     C25    -0.5695   -1.2776   -2.2881 C.3      1 ZINC001085817863    0.0600
26     H26     2.2944    0.1166    0.8256 H        1 ZINC001085817863    0.0600
27     H27     1.0613    0.6534   -0.3404 H        1 ZINC001085817863    0.0500
28     H28     0.7007    0.6603    1.4026 H        1 ZINC001085817863    0.0600
29     H29     1.2273   -1.8203   -0.2963 H        1 ZINC001085817863    0.0600
30     H30     0.8668   -1.8134    1.4467 H        1 ZINC001085817863    0.1100
31     H31    -4.2332   -1.9875    2.2100 H        1 ZINC001085817863    0.0700
32     H32    -4.8131   -0.9736    3.5531 H        1 ZINC001085817863    0.0700
33     H33    -4.1370   -0.2141    2.0922 H        1 ZINC001085817863    0.0600
34     H34    -3.4007   -1.4891    5.3165 H        1 ZINC001085817863    0.0800
35     H35    -1.6319   -1.4326    5.1258 H        1 ZINC001085817863    0.1000
36     H36    -2.4760    0.9971    7.3715 H        1 ZINC001085817863    0.0800
37     H37    -1.0347    0.0750    6.7456 H        1 ZINC001085817863    0.1000
38     H38    -2.0210    2.8938    5.8829 H        1 ZINC001085817863    0.0700
39     H39    -0.3099    2.2917    5.9611 H        1 ZINC001085817863    0.0800
40     H40    -2.4109    1.5582    2.6081 H        1 ZINC001085817863    0.0900
41     H41    -3.0823    2.6012    3.8847 H        1 ZINC001085817863    0.0500
42     H42    -1.8721    4.6210    4.6163 H        1 ZINC001085817863    0.1300
43     H43    -0.2486    6.3722    3.9236 H        1 ZINC001085817863    0.1300
44     H44     1.2769    5.9229    2.0436 H        1 ZINC001085817863    0.1600
45     H45    -0.3195    2.1282    1.5171 H        1 ZINC001085817863    0.1500
46     H46    -4.0373   -1.2024    0.7576 H        1 ZINC001085817863    0.1600
47     H47    -3.3711   -1.2280   -1.7768 H        1 ZINC001085817863    0.1600
48     H48    -0.3669   -0.2548   -2.6059 H        1 ZINC001085817863    0.0800
49     H49     0.3727   -1.8045   -2.1373 H        1 ZINC001085817863    0.0900
50     H50    -1.1524   -1.7876   -3.0550 H        1 ZINC001085817863    0.0900
@<TRIPOS>BOND
1     1     2     1
2     1     26    1
3     1     27    1
4     1     28    1
5     2     3     1
6     2     29    1
7     2     30    1
8     3     24    1
9     3     4     2
10    4     5     1
11    4     22    1
12    5     6     2
13    5     7     am
14    7     8     1
15    7     9     1
16    8     31    1
17    8     32    1
18    8     33    1
19    9     10    1
20    9     34    1
21    9     35    1
22    10    11    1
23    10    14    1
24    10    12    1
25    12    13    1
26    12    36    1
27    12    37    1
28    13    14    1
29    13    38    1
30    13    39    1
31    14    15    1
32    15    16    1
33    15    40    1
34    15    41    1
35    16    21    ar
36    16    17    ar
37    17    18    ar
38    17    42    1
39    18    19    ar
40    18    43    1
41    19    20    ar
42    19    44    1
43    20    21    ar
44    21    45    1
45    22    23    2
46    22    46    1
47    23    24    1
48    23    47    1
49    24    25    1
50    25    48    1
51    25    49    1
52    25    50    1
@<TRIPOS>SUBSTRUCTURE
1   ZINC001085817863 1     RESIDUE    1   A     ZIN   1
@<TRIPOS>MOLECULE
ZINC000002634904
48	51	1	0	0
SMALL
USER_CHARGES
@<TRIPOS>ATOM
1      N1      0.9420   -1.2758    0.3563 N.1      1 ZINC000002634904   -0.4100
2      C2      0.8402   -0.1452    0.3978 C.1      1 ZINC000002634904    0.2500
3      C3      0.7118    1.2801    0.4501 C.ar     1 ZINC000002634904   -0.0400
4      C4     -0.1402    1.8729    1.3862 C.ar     1 ZINC000002634904   -0.0500
5      C5     -0.2612    3.2437    1.4336 C.ar     1 ZINC000002634904   -0.1400
6      C6      0.4633    4.0384    0.5512 C.ar     1 ZINC000002634904    0.1700
7      N7      0.3382    5.4273    0.6022 N.am     1 ZINC000002634904   -0.6700
8      C8      1.4077    6.2097    0.3566 C.2      1 ZINC000002634904    0.5400
9      O9      2.4574    5.7107    0.0101 O.2      1 ZINC000002634904   -0.5000
10     C10     1.2994    7.7047    0.5127 C.3      1 ZINC000002634904   -0.1700
11     S11     2.8906    8.4698    0.1142 S.3      1 ZINC000002634904    0.1300
12     C12     2.4880   10.1656    0.3725 C.ar     1 ZINC000002634904    0.2100
13     N13     1.2613   10.4942    0.7619 N.ar     1 ZINC000002634904   -0.2900
14     N14     0.9225   11.7194    0.9627 N.ar     1 ZINC000002634904   -0.1600
15     C15     1.8019   12.6993    0.7834 C.ar     1 ZINC000002634904    0.0600
16     C16     1.4138   14.1104    1.0145 C.ar     1 ZINC000002634904   -0.0500
17     C17     0.2010   14.5923    0.5231 C.ar     1 ZINC000002634904   -0.0800
18     C18    -0.1550   15.9075    0.7415 C.ar     1 ZINC000002634904   -0.1200
19     C19     0.6888   16.7475    1.4459 C.ar     1 ZINC000002634904   -0.1000
20     C20     1.8932   16.2752    1.9357 C.ar     1 ZINC000002634904   -0.1200
21     C21     2.2573   14.9603    1.7291 C.ar     1 ZINC000002634904   -0.0800
22     C22     3.1098   12.3750    0.3703 C.ar     1 ZINC000002634904    0.2300
23     C23     4.1221   13.4358    0.1583 C.ar     1 ZINC000002634904   -0.0700
24     C24     3.7837   14.5982   -0.5337 C.ar     1 ZINC000002634904   -0.0700
25     C25     4.7307   15.5829   -0.7276 C.ar     1 ZINC000002634904   -0.1200
26     C26     6.0137   15.4187   -0.2370 C.ar     1 ZINC000002634904   -0.0900
27     C27     6.3556   14.2676    0.4499 C.ar     1 ZINC000002634904   -0.1200
28     C28     5.4156   13.2784    0.6551 C.ar     1 ZINC000002634904   -0.0700
29     N29     3.4166   11.0939    0.1801 N.ar     1 ZINC000002634904   -0.4400
30     C30     1.3125    3.4520   -0.3815 C.ar     1 ZINC000002634904   -0.1200
31     C31     1.4426    2.0821   -0.4311 C.ar     1 ZINC000002634904   -0.0500
32     H32    -0.7033    1.2564    2.0713 H        1 ZINC000002634904    0.1400
33     H33    -0.9196    3.7024    2.1564 H        1 ZINC000002634904    0.1400
34     H34    -0.5186    5.8296    0.8142 H        1 ZINC000002634904    0.4200
35     H35     0.5336    8.0860   -0.1628 H        1 ZINC000002634904    0.1300
36     H36     1.0286    7.9440    1.5410 H        1 ZINC000002634904    0.1300
37     H37    -0.4582   13.9376   -0.0275 H        1 ZINC000002634904    0.1300
38     H38    -1.0940   16.2818    0.3615 H        1 ZINC000002634904    0.1300
39     H39     0.4062   17.7763    1.6137 H        1 ZINC000002634904    0.1300
40     H40     2.5479   16.9357    2.4849 H        1 ZINC000002634904    0.1300
41     H41     3.1977   14.5926    2.1123 H        1 ZINC000002634904    0.1200
42     H42     2.7824   14.7273   -0.9175 H        1 ZINC000002634904    0.1300
43     H43     4.4698   16.4834   -1.2637 H        1 ZINC000002634904    0.1300
44     H44     6.7515   16.1922   -0.3912 H        1 ZINC000002634904    0.1300
45     H45     7.3589   14.1449    0.8303 H        1 ZINC000002634904    0.1300
46     H46     5.6837   12.3802    1.1915 H        1 ZINC000002634904    0.1300
47     H47     1.8737    4.0722   -1.0647 H        1 ZINC000002634904    0.1500
48     H48     2.1024    1.6275   -1.1552 H        1 ZINC000002634904    0.1400
@<TRIPOS>BOND
1     1     2     3
2     2     3     1
3     3     31    ar
4     3     4     ar
5     4     5     ar
6     4     32    1
7     5     6     ar
8     5     33    1
9     6     7     1
10    6     30    ar
11    7     8     am
12    7     34    1
13    8     9     2
14    8     10    1
15    10    11    1
16    10    35    1
17    10    36    1
18    11    12    1
19    12    29    ar
20    12    13    ar
21    13    14    ar
22    14    15    ar
23    15    16    1
24    15    22    ar
25    16    21    ar
26    16    17    ar
27    17    18    ar
28    17    37    1
29    18    19    ar
30    18    38    1
31    19    20    ar
32    19    39    1
33    20    21    ar
34    20    40    1
35    21    41    1
36    22    23    1
37    22    29    ar
38    23    28    ar
39    23    24    ar
40    24    25    ar
41    24    42    1
42    25    26    ar
43    25    43    1
44    26    27    ar
45    26    44    1
46    27    28    ar
47    27    45    1
48    28    46    1
49    30    31    ar
50    30    47    1
51    31    48    1
@<TRIPOS>SUBSTRUCTURE
1   ZINC000002634904 1     RESIDUE    1   A     ZIN   1
@<TRIPOS>MOLECULE
ZINC000467185792
53	55	1	0	0
SMALL
USER_CHARGES
@<TRIPOS>ATOM
1      C1      1.8433    1.5672   -0.9286 C.3      1 ZINC000467185792   -0.1500
2      C2      1.8452    0.0372   -0.9305 C.3      1 ZINC000467185792   -0.1200
3      C3      2.3872   -0.4737    0.4060 C.3      1 ZINC000467185792    0.0600
4      O4      2.3889   -1.9027    0.4043 O.3      1 ZINC000467185792   -0.3100
5      C5      2.8441   -2.5206    1.5260 C.ar     1 ZINC000467185792    0.1400
6      C6      3.2743   -1.7639    2.6073 C.ar     1 ZINC000467185792   -0.2100
7      C7      3.7364   -2.3879    3.7473 C.ar     1 ZINC000467185792   -0.0400
8      C8      3.7711   -3.7799    3.8128 C.ar     1 ZINC000467185792   -0.0600
9      C9      4.2670   -4.4542    5.0375 C.2      1 ZINC000467185792    0.1400
10     C10     4.3248   -5.7934    5.1473 C.2      1 ZINC000467185792   -0.3000
11     S11     4.9656   -6.1884    6.7406 S.3      1 ZINC000467185792    0.2000
12     C12     5.0969   -4.4723    7.1138 C.2      1 ZINC000467185792    0.2800
13     N13     5.5686   -3.9446    8.3080 N.am     1 ZINC000467185792   -0.6100
14     C14     5.9715   -4.7680    9.2961 C.2      1 ZINC000467185792    0.5900
15     O15     5.8355   -5.9708    9.1786 O.2      1 ZINC000467185792   -0.4900
16     C16     6.5767   -4.2108   10.5186 C.2      1 ZINC000467185792   -0.2400
17     C17     7.0965   -5.0390   11.5114 C.2      1 ZINC000467185792    0.0800
18     C18     7.0584   -6.5388   11.3692 C.3      1 ZINC000467185792   -0.1200
19     C19     8.3499   -7.0212   10.7056 C.3      1 ZINC000467185792   -0.1400
20     C20     7.6556   -4.4362   12.6448 C.2      1 ZINC000467185792    0.0600
21     C21     8.2292   -5.2960   13.7416 C.3      1 ZINC000467185792   -0.0600
22     C22     8.7733   -4.4025   14.8581 C.3      1 ZINC000467185792   -0.1500
23     N23     7.6849   -3.1363   12.7597 N.2      1 ZINC000467185792   -0.1800
24     N24     7.2158   -2.3454   11.8656 N.am     1 ZINC000467185792   -0.4300
25     C25     6.6586   -2.8053   10.7290 C.2      1 ZINC000467185792    0.5000
26     O26     6.2209   -2.0293    9.8970 O.2      1 ZINC000467185792   -0.5300
27     N27     4.6889   -3.7783    6.0968 N.2      1 ZINC000467185792   -0.5000
28     C28     3.3384   -4.5369    2.7252 C.ar     1 ZINC000467185792   -0.0600
29     C29     2.8725   -3.9069    1.5901 C.ar     1 ZINC000467185792   -0.1500
30     H30     2.8606    1.9316   -0.7858 H        1 ZINC000467185792    0.0600
31     H31     1.4573    1.9312   -1.8807 H        1 ZINC000467185792    0.0700
32     H32     1.2108    1.9288   -0.1179 H        1 ZINC000467185792    0.0600
33     H33     0.8279   -0.3272   -1.0732 H        1 ZINC000467185792    0.0700
34     H34     2.4778   -0.3243   -1.7412 H        1 ZINC000467185792    0.0700
35     H35     3.4045   -0.1093    0.5488 H        1 ZINC000467185792    0.0600
36     H36     1.7546   -0.1122    1.2167 H        1 ZINC000467185792    0.0600
37     H37     3.2475   -0.6855    2.5558 H        1 ZINC000467185792    0.1300
38     H38     4.0713   -1.7986    4.5882 H        1 ZINC000467185792    0.1300
39     H39     4.0292   -6.5042    4.3898 H        1 ZINC000467185792    0.1800
40     H40     5.6083   -2.9833    8.4314 H        1 ZINC000467185792    0.4400
41     H41     6.9640   -6.9949   12.3547 H        1 ZINC000467185792    0.0900
42     H42     6.2052   -6.8239   10.7536 H        1 ZINC000467185792    0.1300
43     H43     8.4443   -6.5651    9.7201 H        1 ZINC000467185792    0.0600
44     H44     9.2031   -6.7361   11.3212 H        1 ZINC000467185792    0.0600
45     H45     8.3223   -8.1060   10.6028 H        1 ZINC000467185792    0.0700
46     H46     7.4486   -5.9430   14.1418 H        1 ZINC000467185792    0.1000
47     H47     9.0370   -5.9072   13.3392 H        1 ZINC000467185792    0.1000
48     H48     9.1881   -5.0244   15.6514 H        1 ZINC000467185792    0.0600
49     H49     9.5538   -3.7555   14.4579 H        1 ZINC000467185792    0.0600
50     H50     7.9655   -3.7913   15.2605 H        1 ZINC000467185792    0.0600
51     H51     7.2677   -1.3876   12.0104 H        1 ZINC000467185792    0.4500
52     H52     3.3644   -5.6155    2.7728 H        1 ZINC000467185792    0.1300
53     H53     2.5368   -4.4928    0.7473 H        1 ZINC000467185792    0.1400
@<TRIPOS>BOND
1     1     2     1
2     1     30    1
3     1     31    1
4     1     32    1
5     2     3     1
6     2     33    1
7     2     34    1
8     3     4     1
9     3     35    1
10    3     36    1
11    4     5     1
12    5     29    ar
13    5     6     ar
14    6     7     ar
15    6     37    1
16    7     8     ar
17    7     38    1
18    8     9     1
19    8     28    ar
20    9     27    1
21    9     10    2
22    10    11    1
23    10    39    1
24    11    12    1
25    12    13    1
26    12    27    2
27    13    14    am
28    13    40    1
29    14    15    2
30    14    16    1
31    16    25    1
32    16    17    2
33    17    18    1
34    17    20    1
35    18    19    1
36    18    41    1
37    18    42    1
38    19    43    1
39    19    44    1
40    19    45    1
41    20    21    1
42    20    23    2
43    21    22    1
44    21    46    1
45    21    47    1
46    22    48    1
47    22    49    1
48    22    50    1
49    23    24    1
50    24    25    am
51    24    51    1
52    25    26    2
53    28    29    ar
54    28    52    1
55    29    53    1
@<TRIPOS>SUBSTRUCTURE
1   ZINC000467185792 1     RESIDUE    1   A     ZIN   1
@<TRIPOS>MOLECULE
ZINC000828026236
28	30	1	0	0
SMALL
USER_CHARGES
@<TRIPOS>ATOM
1      N1      3.1764    4.6516   -1.4340 N.1      1 ZINC000828026236   -0.3800
2      C2      2.2576    4.1311   -1.0153 C.1      1 ZINC000828026236    0.2600
3      C3      1.0994    3.4749   -0.4875 C.ar     1 ZINC000828026236   -0.0500
4      C4     -0.1373    4.1288   -0.4554 C.ar     1 ZINC000828026236    0.0100
5      C5     -1.2267    3.4505    0.0651 C.ar     1 ZINC000828026236   -0.1600
6      Br6    -2.9233    4.2828    0.1339 Br       1 ZINC000828026236   -0.0100
7      C7     -1.0643    2.1588    0.5339 C.ar     1 ZINC000828026236    0.1800
8      N8      0.1106    1.5600    0.4945 N.ar     1 ZINC000828026236   -0.5000
9      C9      1.1827    2.1599    0.0024 C.ar     1 ZINC000828026236    0.3600
10     N10     2.3957    1.4930   -0.0189 N.3      1 ZINC000828026236   -0.4900
11     C11     2.5378    0.6971   -1.2463 C.3      1 ZINC000828026236    0.0500
12     C12     4.0028    0.2781   -1.4233 C.3      1 ZINC000828026236    0.1100
13     N13     4.4691   -0.3029   -0.1616 N.pl3    1 ZINC000828026236   -0.4400
14     C14     5.5690   -1.0706    0.0658 C.2      1 ZINC000828026236   -0.0300
15     Br15    6.8476   -1.6199   -1.2145 Br       1 ZINC000828026236    0.0200
16     C16     5.5699   -1.3638    1.3839 C.2      1 ZINC000828026236    0.0300
17     N17     4.4927   -0.7845    1.9409 N.2      1 ZINC000828026236   -0.4700
18     C18     3.8289   -0.1466    1.0249 C.2      1 ZINC000828026236    0.2300
19     C19     2.5582    0.6543    1.1813 C.3      1 ZINC000828026236    0.1500
20     H20    -0.2396    5.1378   -0.8269 H        1 ZINC000828026236    0.1600
21     H21    -1.9148    1.6313    0.9397 H        1 ZINC000828026236    0.1800
22     H22     1.9119   -0.1926   -1.1762 H        1 ZINC000828026236    0.0700
23     H23     2.2249    1.2933   -2.1035 H        1 ZINC000828026236    0.1100
24     H24     4.0799   -0.4622   -2.2196 H        1 ZINC000828026236    0.1100
25     H25     4.6073    1.1504   -1.6719 H        1 ZINC000828026236    0.1000
26     H26     6.3074   -1.9601    1.9005 H        1 ZINC000828026236    0.1800
27     H27     2.6286    1.2873    2.0659 H        1 ZINC000828026236    0.1200
28     H28     1.7074   -0.0201    1.2772 H        1 ZINC000828026236    0.1000
@<TRIPOS>BOND
1     1     2     3
2     2     3     1
3     3     9     ar
4     3     4     ar
5     4     5     ar
6     4     20    1
7     5     6     1
8     5     7     ar
9     7     8     ar
10    7     21    1
11    8     9     ar
12    9     10    1
13    10    19    1
14    10    11    1
15    11    12    1
16    11    22    1
17    11    23    1
18    12    13    1
19    12    24    1
20    12    25    1
21    13    18    1
22    13    14    1
23    14    15    1
24    14    16    2
25    16    17    1
26    16    26    1
27    17    18    2
28    18    19    1
29    19    27    1
30    19    28    1
@<TRIPOS>SUBSTRUCTURE
1   ZINC000828026236 1     RESIDUE    1   A     ZIN   1
@<TRIPOS>MOLECULE
ZINC001098311495
52	54	1	0	0
SMALL
USER_CHARGES
@<TRIPOS>ATOM
1      C1     -1.3730   13.1769   -0.1164 C.3      1 ZINC001098311495   -0.1500
2      C2     -1.2024   12.8657    1.3719 C.3      1 ZINC001098311495    0.0500
3      O3     -1.3171   11.4566    1.5801 O.3      1 ZINC001098311495   -0.2800
4      C4     -1.1892   11.0100    2.8546 C.ar     1 ZINC001098311495    0.1900
5      C5     -0.9637   11.9071    3.8877 C.ar     1 ZINC001098311495   -0.2200
6      C6     -0.8272   11.4503    5.1838 C.ar     1 ZINC001098311495   -0.0500
7      C7     -0.9208   10.0969    5.4632 C.ar     1 ZINC001098311495   -0.1700
8      C8     -1.1507    9.1918    4.4495 C.ar     1 ZINC001098311495   -0.0500
9      C9     -1.2903    9.6401    3.1341 C.ar     1 ZINC001098311495   -0.1800
10     C10    -1.5366    8.6767    2.0441 C.2      1 ZINC001098311495    0.5600
11     O11    -1.6576    9.0708    0.9002 O.2      1 ZINC001098311495   -0.5200
12     N12    -1.6276    7.3599    2.3164 N.am     1 ZINC001098311495   -0.7200
13     C13    -1.8722    6.4033    1.2341 C.3      1 ZINC001098311495    0.1600
14     H14    -1.4169    6.7504    0.3066 H        1 ZINC001098311495    0.1000
15     C15    -3.3913    6.1702    1.0457 C.3      1 ZINC001098311495   -0.1200
16     C16    -3.5657    4.6495    1.3392 C.3      1 ZINC001098311495    0.0500
17     H17    -4.5727    4.3357    1.6140 H        1 ZINC001098311495    0.1100
18     C18    -2.9397    3.9096    0.1187 C.3      1 ZINC001098311495   -0.1500
19     C19    -1.4184    4.1313    0.3024 C.3      1 ZINC001098311495   -0.1500
20     C20    -1.3317    4.9924    1.6163 C.3      1 ZINC001098311495    0.0400
21     H21    -0.3708    4.9691    2.1303 H        1 ZINC001098311495    0.1200
22     N22    -2.5017    4.4338    2.3836 N.3      1 ZINC001098311495   -0.4900
23     C23    -2.3161    3.0027    2.6583 C.3      1 ZINC001098311495    0.0600
24     C24    -1.1707    2.8203    3.6205 C.2      1 ZINC001098311495   -0.1600
25     C25    -1.3487    2.1481    4.7308 C.2      1 ZINC001098311495   -0.1200
26     C26    -0.2478    2.0846    5.7579 C.3      1 ZINC001098311495   -0.1200
27     C27    -2.6544    1.4384    4.9808 C.3      1 ZINC001098311495   -0.1200
28     H28    -0.6001   12.6613   -0.6863 H        1 ZINC001098311495    0.0700
29     H29    -2.3550   12.8394   -0.4479 H        1 ZINC001098311495    0.0700
30     H30    -1.2855   14.2517   -0.2752 H        1 ZINC001098311495    0.0800
31     H31    -1.9753   13.3813    1.9418 H        1 ZINC001098311495    0.0600
32     H32    -0.2204   13.2032    1.7034 H        1 ZINC001098311495    0.0600
33     H33    -0.8899   12.9639    3.6778 H        1 ZINC001098311495    0.1300
34     H34    -0.6469   12.1524    5.9843 H        1 ZINC001098311495    0.1300
35     H35    -0.8133    9.7493    6.4801 H        1 ZINC001098311495    0.1300
36     H36    -1.2226    8.1374    4.6719 H        1 ZINC001098311495    0.1300
37     H37    -1.5311    7.0455    3.2290 H        1 ZINC001098311495    0.4000
38     H38    -3.6910    6.4005    0.0233 H        1 ZINC001098311495    0.0800
39     H39    -3.9622    6.7663    1.7575 H        1 ZINC001098311495    0.0800
40     H40    -3.1792    2.8467    0.1502 H        1 ZINC001098311495    0.0700
41     H41    -3.2821    4.3536   -0.8161 H        1 ZINC001098311495    0.0800
42     H42    -0.9038    3.1782    0.4250 H        1 ZINC001098311495    0.0700
43     H43    -1.0066    4.6851   -0.5413 H        1 ZINC001098311495    0.0800
44     H44    -2.0956    2.4797    1.7277 H        1 ZINC001098311495    0.0500
45     H45    -3.2273    2.5957    3.0967 H        1 ZINC001098311495    0.0800
46     H46    -0.2031    3.2436    3.3948 H        1 ZINC001098311495    0.1100
47     H47     0.3902    1.2247    5.5540 H        1 ZINC001098311495    0.0700
48     H48    -0.6837    1.9860    6.7521 H        1 ZINC001098311495    0.0600
49     H49     0.3463    2.9972    5.7106 H        1 ZINC001098311495    0.0600
50     H50    -3.3712    2.1374    5.4117 H        1 ZINC001098311495    0.0700
51     H51    -3.0444    1.0525    4.0390 H        1 ZINC001098311495    0.0600
52     H52    -2.4920    0.6119    5.6727 H        1 ZINC001098311495    0.0600
@<TRIPOS>BOND
1     1     2     1
2     1     28    1
3     1     29    1
4     1     30    1
5     2     3     1
6     2     31    1
7     2     32    1
8     3     4     1
9     4     9     ar
10    4     5     ar
11    5     6     ar
12    5     33    1
13    6     7     ar
14    6     34    1
15    7     8     ar
16    7     35    1
17    8     9     ar
18    8     36    1
19    9     10    1
20    10    11    2
21    10    12    am
22    12    13    1
23    12    37    1
24    13    14    1
25    13    20    1
26    13    15    1
27    15    16    1
28    15    38    1
29    15    39    1
30    16    17    1
31    16    22    1
32    16    18    1
33    18    19    1
34    18    40    1
35    18    41    1
36    19    20    1
37    19    42    1
38    19    43    1
39    20    21    1
40    20    22    1
41    22    23    1
42    23    24    1
43    23    44    1
44    23    45    1
45    24    25    2
46    24    46    1
47    25    26    1
48    25    27    1
49    26    47    1
50    26    48    1
51    26    49    1
52    27    50    1
53    27    51    1
54    27    52    1
@<TRIPOS>SUBSTRUCTURE
1   ZINC001098311495 1     RESIDUE    1   A     ZIN   1
@<TRIPOS>MOLECULE
ZINC000950547210
55	58	1	0	0
SMALL
USER_CHARGES
@<TRIPOS>ATOM
1      O1      0.0779    0.1569   -0.0775 O.2      1 ZINC000950547210   -0.5200
2      C2      0.0665    1.3664    0.0117 C.2      1 ZINC000950547210    0.5200
3      N3      1.2268    2.0472    0.0920 N.am     1 ZINC000950547210   -0.7300
4      C4      2.5020    1.3263    0.0715 C.3      1 ZINC000950547210    0.1300
5      H5      2.4200    0.4607   -0.5859 H        1 ZINC000950547210    0.0900
6      C6      3.6054    2.2546   -0.4415 C.3      1 ZINC000950547210   -0.1300
7      C7      4.9316    1.4928   -0.4944 C.3      1 ZINC000950547210   -0.1300
8      C8      5.3066    1.0298    0.9169 C.3      1 ZINC000950547210    0.1000
9      N9      4.1883    0.2564    1.4736 N.am     1 ZINC000950547210   -0.6100
10     C10     4.3869   -0.9843    1.9612 C.2      1 ZINC000950547210    0.5600
11     O11     3.4744   -1.5777    2.5037 O.2      1 ZINC000950547210   -0.5200
12     C12     5.7073   -1.6207    1.8372 C.2      1 ZINC000950547210   -0.1400
13     C13     6.6538   -1.2995    2.7007 C.2      1 ZINC000950547210   -0.1500
14     C14     8.0338   -1.8917    2.6459 C.3      1 ZINC000950547210    0.0900
15     O15     8.0370   -3.0528    1.8131 O.3      1 ZINC000950547210   -0.3700
16     C16     7.4365   -2.8274    0.5320 C.3      1 ZINC000950547210    0.0600
17     C17     5.9316   -2.6195    0.7351 C.3      1 ZINC000950547210   -0.1100
18     C18     2.8491    0.8607    1.4890 C.3      1 ZINC000950547210    0.1000
19     C19    -1.2451    2.1084    0.0266 C.3      1 ZINC000950547210   -0.1000
20     H20    -1.2817    2.7987   -0.8162 H        1 ZINC000950547210    0.1000
21     C21    -1.3725    2.8927    1.3341 C.3      1 ZINC000950547210   -0.1100
22     C22    -2.6104    2.4158    2.0964 C.3      1 ZINC000950547210   -0.0900
23     C23    -3.8570    2.6462    1.2399 C.3      1 ZINC000950547210   -0.1100
24     C24    -3.7296    1.8619   -0.0675 C.3      1 ZINC000950547210   -0.1100
25     C25    -2.3980    1.1085   -0.0827 C.3      1 ZINC000950547210   -0.0600
26     C26    -2.3467    0.1396    1.1003 C.3      1 ZINC000950547210   -0.1300
27     C27    -2.4741    0.9240    2.4078 C.3      1 ZINC000950547210   -0.1200
28     H28     1.2176    3.0146    0.1634 H        1 ZINC000950547210    0.4000
29     H29     3.3485    2.6064   -1.4407 H        1 ZINC000950547210    0.0800
30     H30     3.7032    3.1078    0.2297 H        1 ZINC000950547210    0.0700
31     H31     4.8271    0.6253   -1.1461 H        1 ZINC000950547210    0.0700
32     H32     5.7121    2.1476   -0.8819 H        1 ZINC000950547210    0.0900
33     H33     6.1973    0.4032    0.8713 H        1 ZINC000950547210    0.0900
34     H34     5.5000    1.8980    1.5470 H        1 ZINC000950547210    0.0700
35     H35     6.4272   -0.5828    3.4762 H        1 ZINC000950547210    0.1200
36     H36     8.7276   -1.1548    2.2414 H        1 ZINC000950547210    0.0700
37     H37     8.3488   -2.1677    3.6522 H        1 ZINC000950547210    0.1100
38     H38     7.8739   -1.9406    0.0734 H        1 ZINC000950547210    0.0600
39     H39     7.6024   -3.6941   -0.1079 H        1 ZINC000950547210    0.1000
40     H40     5.4661   -3.5695    0.9977 H        1 ZINC000950547210    0.0900
41     H41     5.4897   -2.2416   -0.1868 H        1 ZINC000950547210    0.0900
42     H42     2.8416    1.7153    2.1656 H        1 ZINC000950547210    0.0700
43     H43     2.1190    0.1227    1.8212 H        1 ZINC000950547210    0.1000
44     H44    -0.4844    2.7286    1.9443 H        1 ZINC000950547210    0.0700
45     H45    -1.4696    3.9555    1.1123 H        1 ZINC000950547210    0.0700
46     H46    -2.7011    2.9745    3.0279 H        1 ZINC000950547210    0.0700
47     H47    -4.7389    2.3064    1.7830 H        1 ZINC000950547210    0.0600
48     H48    -3.9541    3.7090    1.0181 H        1 ZINC000950547210    0.0600
49     H49    -4.5510    1.1495   -0.1454 H        1 ZINC000950547210    0.0700
50     H50    -3.7662    2.5521   -0.9103 H        1 ZINC000950547210    0.0600
51     H51    -2.3073    0.5498   -1.0141 H        1 ZINC000950547210    0.0800
52     H52    -3.1681   -0.5727    1.0225 H        1 ZINC000950547210    0.0600
53     H53    -1.3981   -0.3971    1.0896 H        1 ZINC000950547210    0.0900
54     H54    -1.5860    0.7598    3.0180 H        1 ZINC000950547210    0.0600
55     H55    -3.3560    0.5842    2.9509 H        1 ZINC000950547210    0.0600
@<TRIPOS>BOND
1     1     2     2
2     2     3     am
3     2     19    1
4     3     4     1
5     3     28    1
6     4     5     1
7     4     18    1
8     4     6     1
9     6     7     1
10    6     29    1
11    6     30    1
12    7     8     1
13    7     31    1
14    7     32    1
15    8     9     1
16    8     33    1
17    8     34    1
18    9     10    am
19    9     18    1
20    10    11    2
21    10    12    1
22    12    17    1
23    12    13    2
24    13    14    1
25    13    35    1
26    14    15    1
27    14    36    1
28    14    37    1
29    15    16    1
30    16    17    1
31    16    38    1
32    16    39    1
33    17    40    1
34    17    41    1
35    18    42    1
36    18    43    1
37    19    20    1
38    19    25    1
39    19    21    1
40    21    22    1
41    21    44    1
42    21    45    1
43    22    27    1
44    22    23    1
45    22    46    1
46    23    24    1
47    23    47    1
48    23    48    1
49    24    25    1
50    24    49    1
51    24    50    1
52    25    26    1
53    25    51    1
54    26    27    1
55    26    52    1
56    26    53    1
57    27    54    1
58    27    55    1
@<TRIPOS>SUBSTRUCTURE
1   ZINC000950547210 1     RESIDUE    1   A     ZIN   1
@<TRIPOS>MOLECULE
ZINC000680410869
43	45	1	0	0
SMALL
USER_CHARGES
@<TRIPOS>ATOM
1      O1      1.0359    1.7933   -0.1820 O.2      1 ZINC000680410869   -0.5200
2      C2     -0.0144    1.2115    0.0087 C.2      1 ZINC000680410869    0.6100
3      C3     -0.0582   -0.2645   -0.0274 C.2      1 ZINC000680410869    0.0100
4      N4     -1.1378   -1.0188    0.0268 N.2      1 ZINC000680410869   -0.2500
5      N5     -0.8116   -2.2601   -0.0293 N.pl3    1 ZINC000680410869   -0.3500
6      C6     -1.7584   -3.3775    0.0051 C.3      1 ZINC000680410869    0.5000
7      F7     -2.9732   -2.9771   -0.5617 F        1 ZINC000680410869   -0.1600
8      F8     -1.2369   -4.4532   -0.7215 F        1 ZINC000680410869   -0.1700
9      C9      0.5293   -2.3867   -0.1252 C.2      1 ZINC000680410869    0.0100
10     C10     1.0505   -1.1375   -0.1328 C.2      1 ZINC000680410869   -0.1700
11     N11    -1.1377    1.9131    0.2585 N.am     1 ZINC000680410869   -0.6000
12     C12    -1.1522    3.3811    0.1576 C.3      1 ZINC000680410869    0.0800
13     C13    -1.7619    3.9482    1.4446 C.3      1 ZINC000680410869    0.0500
14     O14    -3.0210    3.3161    1.6874 O.3      1 ZINC000680410869   -0.3700
15     C15    -2.9357    1.9055    1.9034 C.3      1 ZINC000680410869    0.0800
16     H16    -2.2684    1.7052    2.7418 H        1 ZINC000680410869    0.0600
17     C17    -4.3274    1.3510    2.2142 C.3      1 ZINC000680410869   -0.1000
18     C18    -4.8244    1.9335    3.5388 C.3      1 ZINC000680410869   -0.0800
19     C19    -6.1952    1.3873    3.8449 C.ar     1 ZINC000680410869   -0.0800
20     C20    -7.3203    2.0500    3.3912 C.ar     1 ZINC000680410869   -0.1200
21     C21    -8.5777    1.5490    3.6720 C.ar     1 ZINC000680410869   -0.1200
22     C22    -8.7100    0.3851    4.4060 C.ar     1 ZINC000680410869   -0.1300
23     C23    -7.5848   -0.2780    4.8589 C.ar     1 ZINC000680410869   -0.1200
24     C24    -6.3273    0.2206    4.5745 C.ar     1 ZINC000680410869   -0.1200
25     C25    -2.3875    1.2333    0.6343 C.3      1 ZINC000680410869    0.0600
26     H26    -1.9228   -3.6827    1.0385 H        1 ZINC000680410869    0.1700
27     H27     1.0826   -3.3121   -0.1884 H        1 ZINC000680410869    0.1900
28     H28     2.0933   -0.8646   -0.1994 H        1 ZINC000680410869    0.1700
29     H29    -0.1337    3.7510    0.0398 H        1 ZINC000680410869    0.1000
30     H30    -1.7547    3.6842   -0.6987 H        1 ZINC000680410869    0.0800
31     H31    -1.0904    3.7554    2.2813 H        1 ZINC000680410869    0.0600
32     H32    -1.9091    5.0227    1.3351 H        1 ZINC000680410869    0.1100
33     H33    -5.0153    1.6270    1.4150 H        1 ZINC000680410869    0.0800
34     H34    -4.2769    0.2649    2.2911 H        1 ZINC000680410869    0.0800
35     H35    -4.1365    1.6574    4.3380 H        1 ZINC000680410869    0.0700
36     H36    -4.8748    3.0196    3.4619 H        1 ZINC000680410869    0.0800
37     H37    -7.2170    2.9593    2.8177 H        1 ZINC000680410869    0.1200
38     H38    -9.4568    2.0671    3.3181 H        1 ZINC000680410869    0.1200
39     H39    -9.6924   -0.0059    4.6260 H        1 ZINC000680410869    0.1200
40     H40    -7.6881   -1.1872    5.4327 H        1 ZINC000680410869    0.1200
41     H41    -5.4482   -0.2974    4.9283 H        1 ZINC000680410869    0.1200
42     H42    -3.1162    1.3211   -0.1715 H        1 ZINC000680410869    0.0800
43     H43    -2.1855    0.1810    0.8343 H        1 ZINC000680410869    0.1300
@<TRIPOS>BOND
1     1     2     2
2     2     3     1
3     2     11    am
4     3     10    1
5     3     4     2
6     4     5     1
7     5     6     1
8     5     9     1
9     6     7     1
10    6     8     1
11    6     26    1
12    9     10    2
13    9     27    1
14    10    28    1
15    11    25    1
16    11    12    1
17    12    13    1
18    12    29    1
19    12    30    1
20    13    14    1
21    13    31    1
22    13    32    1
23    14    15    1
24    15    16    1
25    15    17    1
26    15    25    1
27    17    18    1
28    17    33    1
29    17    34    1
30    18    19    1
31    18    35    1
32    18    36    1
33    19    24    ar
34    19    20    ar
35    20    21    ar
36    20    37    1
37    21    22    ar
38    21    38    1
39    22    23    ar
40    22    39    1
41    23    24    ar
42    23    40    1
43    24    41    1
44    25    42    1
45    25    43    1
@<TRIPOS>SUBSTRUCTURE
1   ZINC000680410869 1     RESIDUE    1   A     ZIN   1
@<TRIPOS>MOLECULE
ZINC000826324849
41	44	1	0	0
SMALL
USER_CHARGES
@<TRIPOS>ATOM
1      C1      1.1135    1.3143   -0.5226 C.3      1 ZINC000826324849   -0.0600
2      C2      0.8550   -0.1649   -0.3949 C.2      1 ZINC000826324849    0.2000
3      N3     -0.3142   -0.7582   -0.4171 N.2      1 ZINC000826324849   -0.4600
4      C4     -0.0573   -2.0702   -0.2704 C.2      1 ZINC000826324849    0.1600
5      C5     -1.0763   -3.1797   -0.2319 C.3      1 ZINC000826324849    0.2200
6      H6     -2.0700   -2.7602   -0.0743 H        1 ZINC000826324849    0.1300
7      C7     -1.0467   -3.9541   -1.5545 C.3      1 ZINC000826324849    0.0600
8      O8     -1.8780   -5.1116   -1.4410 O.3      1 ZINC000826324849   -0.3600
9      C9     -1.4467   -6.0470   -0.4497 C.3      1 ZINC000826324849    0.0400
10     C10    -1.4969   -5.3798    0.9295 C.3      1 ZINC000826324849    0.0800
11     N11    -0.7531   -4.1118    0.8599 N.am     1 ZINC000826324849   -1.0100
12     S12     0.4141   -3.7457    1.9762 S.o2     1 ZINC000826324849    2.7100
13     O13     0.4132   -2.3309    2.1083 O.2      1 ZINC000826324849   -0.9300
14     O14     0.2130   -4.6287    3.0712 O.2      1 ZINC000826324849   -0.9300
15     C15     1.9680   -4.1783    1.2670 C.ar     1 ZINC000826324849   -0.5800
16     C16     2.0153   -4.9592    0.1301 C.ar     1 ZINC000826324849   -0.0400
17     C17     3.2340   -5.3004   -0.4288 C.ar     1 ZINC000826324849   -0.0800
18     C18     4.4119   -4.8623    0.1473 C.ar     1 ZINC000826324849   -0.1100
19     C19     4.3771   -4.0793    1.2867 C.ar     1 ZINC000826324849    0.1300
20     F20     5.5282   -3.6509    1.8494 F        1 ZINC000826324849   -0.1100
21     C21     3.1502   -3.7279    1.8499 C.ar     1 ZINC000826324849    0.0500
22     C22     3.1051   -2.8873    3.0725 C.2      1 ZINC000826324849    0.1800
23     N23     4.1274   -2.3007    3.6628 N.2      1 ZINC000826324849   -0.2600
24     N24     3.6780   -1.6649    4.6898 N.pl3    1 ZINC000826324849   -0.2200
25     N25     2.4038   -1.8300    4.7688 N.2      1 ZINC000826324849   -0.0200
26     N26     2.0160   -2.5722    3.7878 N.2      1 ZINC000826324849   -0.2600
27     N27     1.2311   -2.2054   -0.1684 N.2      1 ZINC000826324849   -0.3800
28     O28     1.7741   -1.1233   -0.2433 O.3      1 ZINC000826324849    0.0900
29     H29     2.1861    1.5014   -0.4723 H        1 ZINC000826324849    0.1000
30     H30     0.7271    1.6695   -1.4779 H        1 ZINC000826324849    0.1100
31     H31     0.6142    1.8418    0.2901 H        1 ZINC000826324849    0.1100
32     H32    -1.4171   -3.3171   -2.3577 H        1 ZINC000826324849    0.1200
33     H33    -0.0240   -4.2605   -1.7742 H        1 ZINC000826324849    0.0600
34     H34    -2.1050   -6.9158   -0.4580 H        1 ZINC000826324849    0.1200
35     H35    -0.4254   -6.3610   -0.6653 H        1 ZINC000826324849    0.0600
36     H36    -2.5330   -5.1824    1.2044 H        1 ZINC000826324849    0.0900
37     H37    -1.0382   -6.0342    1.6708 H        1 ZINC000826324849    0.1100
38     H38     1.0986   -5.3051   -0.3243 H        1 ZINC000826324849    0.1400
39     H39     3.2654   -5.9117   -1.3186 H        1 ZINC000826324849    0.1500
40     H40     5.3605   -5.1323   -0.2928 H        1 ZINC000826324849    0.1500
41     H41     4.2156   -1.1441    5.3067 H        1 ZINC000826324849    0.4800
@<TRIPOS>BOND
1     1     2     1
2     1     29    1
3     1     30    1
4     1     31    1
5     2     28    1
6     2     3     2
7     3     4     1
8     4     5     1
9     4     27    2
10    5     6     1
11    5     11    1
12    5     7     1
13    7     8     1
14    7     32    1
15    7     33    1
16    8     9     1
17    9     10    1
18    9     34    1
19    9     35    1
20    10    11    1
21    10    36    1
22    10    37    1
23    11    12    am
24    12    13    2
25    12    14    2
26    12    15    1
27    15    21    ar
28    15    16    ar
29    16    17    ar
30    16    38    1
31    17    18    ar
32    17    39    1
33    18    19    ar
34    18    40    1
35    19    20    1
36    19    21    ar
37    21    22    1
38    22    26    1
39    22    23    2
40    23    24    1
41    24    25    1
42    24    41    1
43    25    26    2
44    27    28    1
@<TRIPOS>SUBSTRUCTURE
1   ZINC000826324849 1     RESIDUE    1   A     ZIN   1
@<TRIPOS>MOLECULE
ZINC000541568816
52	54	1	0	0
SMALL
USER_CHARGES
@<TRIPOS>ATOM
1      C1     -0.6785    1.3229    0.3201 C.3      1 ZINC000541568816   -0.1500
2      C2     -0.5365   -0.1994    0.2615 C.3      1 ZINC000541568816    0.0600
3      O3      0.1548   -0.5676   -0.9337 O.3      1 ZINC000541568816   -0.3700
4      C4      0.3412   -1.9761   -1.0868 C.3      1 ZINC000541568816    0.0700
5      H5     -0.3519   -2.5631   -0.4843 H        1 ZINC000541568816    0.0900
6      C6      1.8076   -2.4229   -0.9515 C.3      1 ZINC000541568816   -0.1700
7      C7      1.5426   -3.3863   -2.1218 C.3      1 ZINC000541568816    0.1500
8      H8      2.3644   -3.4435   -2.8356 H        1 ZINC000541568816    0.1100
9      N9      1.0617   -4.7044   -1.7003 N.am     1 ZINC000541568816   -0.7200
10     C10     1.8938   -5.7644   -1.7236 C.2      1 ZINC000541568816    0.7100
11     O11     3.0435   -5.6267   -2.0944 O.2      1 ZINC000541568816   -0.5800
12     N12     1.4514   -6.9770   -1.3358 N.am     1 ZINC000541568816   -0.6300
13     C13     0.0661   -7.1429   -0.8890 C.3      1 ZINC000541568816    0.1000
14     C14    -0.8412   -7.3439   -2.1045 C.3      1 ZINC000541568816   -0.1800
15     C15     2.3559   -8.1292   -1.3611 C.3      1 ZINC000541568816    0.1700
16     C16     3.0047   -8.2882   -0.0103 C.ar     1 ZINC000541568816   -0.0700
17     C17     2.6340   -7.4646    1.0357 C.ar     1 ZINC000541568816   -0.1000
18     C18     3.2292   -7.6104    2.2751 C.ar     1 ZINC000541568816   -0.1000
19     C19     4.1949   -8.5802    2.4687 C.ar     1 ZINC000541568816   -0.1200
20     C20     4.5664   -9.4045    1.4230 C.ar     1 ZINC000541568816   -0.0900
21     C21     3.9675   -9.2624    0.1844 C.ar     1 ZINC000541568816   -0.0900
22     Br22    4.4752  -10.3897   -1.2465 Br       1 ZINC000541568816   -0.0500
23     C23     0.4216   -2.4299   -2.5478 C.3      1 ZINC000541568816    0.0800
24     C24     0.8562   -1.3333   -3.5356 C.3      1 ZINC000541568816   -0.1200
25     C25     0.1587   -1.7848   -4.8492 C.3      1 ZINC000541568816   -0.1600
26     C26    -1.1416   -2.4179   -4.2916 C.3      1 ZINC000541568816    0.0500
27     O27    -0.7527   -3.0549   -3.0620 O.3      1 ZINC000541568816   -0.3600
28     H28     0.3108    1.7805    0.3170 H        1 ZINC000541568816    0.0600
29     H29    -1.2416    1.6689   -0.5466 H        1 ZINC000541568816    0.0600
30     H30    -1.2058    1.6038    1.2318 H        1 ZINC000541568816    0.0700
31     H31     0.0266   -0.5454    1.1283 H        1 ZINC000541568816    0.0500
32     H32    -1.5258   -0.6570    0.2647 H        1 ZINC000541568816    0.0500
33     H33     2.5264   -1.6379   -1.1867 H        1 ZINC000541568816    0.1000
34     H34     2.0247   -2.9285   -0.0106 H        1 ZINC000541568816    0.0800
35     H35     0.1445   -4.8142   -1.4045 H        1 ZINC000541568816    0.4000
36     H36    -0.0033   -8.0128   -0.2360 H        1 ZINC000541568816    0.0900
37     H37    -0.2488   -6.2531   -0.3438 H        1 ZINC000541568816    0.0700
38     H38    -0.5263   -8.2336   -2.6498 H        1 ZINC000541568816    0.0600
39     H39    -1.8719   -7.4673   -1.7721 H        1 ZINC000541568816    0.0700
40     H40    -0.7717   -6.4740   -2.7576 H        1 ZINC000541568816    0.0600
41     H41     1.7905   -9.0297   -1.6009 H        1 ZINC000541568816    0.1000
42     H42     3.1249   -7.9709   -2.1172 H        1 ZINC000541568816    0.1100
43     H43     1.8795   -6.7067    0.8849 H        1 ZINC000541568816    0.1300
44     H44     2.9398   -6.9661    3.0922 H        1 ZINC000541568816    0.1300
45     H45     4.6596   -8.6937    3.4370 H        1 ZINC000541568816    0.1300
46     H46     5.3212  -10.1620    1.5742 H        1 ZINC000541568816    0.1300
47     H47     0.4919   -0.3565   -3.2175 H        1 ZINC000541568816    0.1000
48     H48     1.9397   -1.3234   -3.6539 H        1 ZINC000541568816    0.0900
49     H49    -0.0634   -0.9310   -5.4893 H        1 ZINC000541568816    0.0900
50     H50     0.7596   -2.5242   -5.3786 H        1 ZINC000541568816    0.0800
51     H51    -1.8857   -1.6452   -4.0983 H        1 ZINC000541568816    0.0600
52     H52    -1.5339   -3.1552   -4.9920 H        1 ZINC000541568816    0.0900
@<TRIPOS>BOND
1     1     2     1
2     1     28    1
3     1     29    1
4     1     30    1
5     2     3     1
6     2     31    1
7     2     32    1
8     3     4     1
9     4     5     1
10    4     23    1
11    4     6     1
12    6     7     1
13    6     33    1
14    6     34    1
15    7     8     1
16    7     9     1
17    7     23    1
18    9     10    am
19    9     35    1
20    10    11    2
21    10    12    am
22    12    13    1
23    12    15    1
24    13    14    1
25    13    36    1
26    13    37    1
27    14    38    1
28    14    39    1
29    14    40    1
30    15    16    1
31    15    41    1
32    15    42    1
33    16    21    ar
34    16    17    ar
35    17    18    ar
36    17    43    1
37    18    19    ar
38    18    44    1
39    19    20    ar
40    19    45    1
41    20    21    ar
42    20    46    1
43    21    22    1
44    23    27    1
45    23    24    1
46    24    25    1
47    24    47    1
48    24    48    1
49    25    26    1
50    25    49    1
51    25    50    1
52    26    27    1
53    26    51    1
54    26    52    1
@<TRIPOS>SUBSTRUCTURE
1   ZINC000541568816 1     RESIDUE    1   A     ZIN   1
@<TRIPOS>MOLECULE
ZINC000555499135
57	59	1	0	0
SMALL
USER_CHARGES
@<TRIPOS>ATOM
1      C1      1.9397    1.7832    0.2634 C.3      1 ZINC000555499135   -0.1500
2      C2      1.1085    0.5263   -0.0016 C.3      1 ZINC000555499135   -0.0500
3      C3      1.6298   -0.1705   -1.2319 C.2      1 ZINC000555499135   -0.2100
4      C4      2.5749   -1.1149   -1.2596 C.2      1 ZINC000555499135    0.0300
5      N5      2.8574   -1.5702   -2.4636 N.2      1 ZINC000555499135   -0.4500
6      C6      2.2031   -1.0625   -3.4530 C.2      1 ZINC000555499135    0.0400
7      C7      2.3843   -1.4519   -4.8975 C.3      1 ZINC000555499135    0.1500
8      N8      1.4719   -2.5555   -5.2253 N.3      1 ZINC000555499135   -0.4500
9      C9      0.0710   -2.1192   -5.1541 C.3      1 ZINC000555499135    0.0100
10     C10     1.7635   -3.0877   -6.4712 C.2      1 ZINC000555499135    0.3500
11     N11     2.5185   -2.5418   -7.3952 N.2      1 ZINC000555499135   -0.3100
12     N12     2.5726   -3.3095   -8.4246 N.2      1 ZINC000555499135   -0.2900
13     C13     1.8613   -4.3819   -8.2201 C.2      1 ZINC000555499135    0.2100
14     C14     1.6706   -5.5245   -9.1840 C.3      1 ZINC000555499135   -0.0300
15     C15     2.8546   -6.4873   -9.0743 C.3      1 ZINC000555499135   -0.0900
16     C16     2.8719   -7.1177   -7.6804 C.3      1 ZINC000555499135   -0.1500
17     C17     2.7175   -7.5866  -10.1296 C.3      1 ZINC000555499135   -0.1500
18     N18     1.3247   -4.2811   -6.9664 N.pl3    1 ZINC000555499135   -0.4600
19     C19     0.4526   -5.2494   -6.2971 C.3      1 ZINC000555499135    0.1100
20     C20    -0.9960   -5.0157   -6.7302 C.3      1 ZINC000555499135    0.0700
21     H21    -1.2799   -3.9867   -6.5095 H        1 ZINC000555499135    0.0700
22     C22    -1.9170   -5.9736   -5.9700 C.3      1 ZINC000555499135   -0.1500
23     C23    -3.3573   -5.7753   -6.4524 C.3      1 ZINC000555499135   -0.1200
24     C24    -3.4117   -5.9961   -7.9672 C.3      1 ZINC000555499135   -0.1600
25     C25    -2.4329   -5.0373   -8.6503 C.3      1 ZINC000555499135    0.0600
26     O26    -1.1180   -5.2530   -8.1341 O.3      1 ZINC000555499135   -0.3700
27     S27     1.0954    0.1106   -2.8872 S.3      1 ZINC000555499135    0.1200
28     H28     2.9818    1.5036    0.4183 H        1 ZINC000555499135    0.0600
29     H29     1.8668    2.4542   -0.5925 H        1 ZINC000555499135    0.0600
30     H30     1.5627    2.2872    1.1533 H        1 ZINC000555499135    0.0700
31     H31     1.1814   -0.1446    0.8543 H        1 ZINC000555499135    0.0900
32     H32     0.0664    0.8059   -0.1564 H        1 ZINC000555499135    0.0800
33     H33     3.0669   -1.4754   -0.3684 H        1 ZINC000555499135    0.1800
34     H34     2.1631   -0.5960   -5.5351 H        1 ZINC000555499135    0.0800
35     H35     3.4137   -1.7707   -5.0615 H        1 ZINC000555499135    0.1200
36     H36    -0.1239   -1.3929   -5.9432 H        1 ZINC000555499135    0.0500
37     H37    -0.5848   -2.9803   -5.2828 H        1 ZINC000555499135    0.0800
38     H38    -0.1178   -1.6606   -4.1834 H        1 ZINC000555499135    0.0900
39     H39     0.7486   -6.0534   -8.9426 H        1 ZINC000555499135    0.1000
40     H40     1.6111   -5.1360  -10.2007 H        1 ZINC000555499135    0.1000
41     H41     3.7835   -5.9408   -9.2375 H        1 ZINC000555499135    0.0800
42     H42     2.9293   -6.3321   -6.9270 H        1 ZINC000555499135    0.0500
43     H43     1.9606   -7.6972   -7.5324 H        1 ZINC000555499135    0.0600
44     H44     3.7381   -7.7730   -7.5887 H        1 ZINC000555499135    0.0600
45     H45     2.7052   -7.1374  -11.1227 H        1 ZINC000555499135    0.0600
46     H46     3.5610   -8.2725  -10.0515 H        1 ZINC000555499135    0.0600
47     H47     1.7885   -8.1330   -9.9664 H        1 ZINC000555499135    0.0600
48     H48     0.7550   -6.2603   -6.5705 H        1 ZINC000555499135    0.1100
49     H49     0.5335   -5.1255   -5.2172 H        1 ZINC000555499135    0.1200
50     H50    -1.6082   -7.0019   -6.1581 H        1 ZINC000555499135    0.0800
51     H51    -1.8586   -5.7643   -4.9019 H        1 ZINC000555499135    0.0800
52     H52    -4.0103   -6.4929   -5.9557 H        1 ZINC000555499135    0.0700
53     H53    -3.6835   -4.7616   -6.2197 H        1 ZINC000555499135    0.0600
54     H54    -3.1330   -7.0248   -8.1956 H        1 ZINC000555499135    0.0700
55     H55    -4.4221   -5.8028   -8.3275 H        1 ZINC000555499135    0.0800
56     H56    -2.4360   -5.2194   -9.7249 H        1 ZINC000555499135    0.1000
57     H57    -2.7357   -4.0086   -8.4548 H        1 ZINC000555499135    0.0500
@<TRIPOS>BOND
1     1     2     1
2     1     28    1
3     1     29    1
4     1     30    1
5     2     3     1
6     2     31    1
7     2     32    1
8     3     27    1
9     3     4     2
10    4     5     1
11    4     33    1
12    5     6     2
13    6     7     1
14    6     27    1
15    7     8     1
16    7     34    1
17    7     35    1
18    8     9     1
19    8     10    1
20    9     36    1
21    9     37    1
22    9     38    1
23    10    18    1
24    10    11    2
25    11    12    1
26    12    13    2
27    13    14    1
28    13    18    1
29    14    15    1
30    14    39    1
31    14    40    1
32    15    16    1
33    15    17    1
34    15    41    1
35    16    42    1
36    16    43    1
37    16    44    1
38    17    45    1
39    17    46    1
40    17    47    1
41    18    19    1
42    19    20    1
43    19    48    1
44    19    49    1
45    20    21    1
46    20    26    1
47    20    22    1
48    22    23    1
49    22    50    1
50    22    51    1
51    23    24    1
52    23    52    1
53    23    53    1
54    24    25    1
55    24    54    1
56    24    55    1
57    25    26    1
58    25    56    1
59    25    57    1
@<TRIPOS>SUBSTRUCTURE
1   ZINC000555499135 1     RESIDUE    1   A     ZIN   1
@<TRIPOS>MOLECULE
ZINC000466160459
62	64	1	0	0
SMALL
USER_CHARGES
@<TRIPOS>ATOM
1      C1     -0.6660    1.4656    0.0244 C.3      1 ZINC000466160459    0.0300
2      O2     -0.4915    0.0473    0.0208 O.3      1 ZINC000466160459   -0.3900
3      C3     -1.7158   -0.6889   -0.0123 C.3      1 ZINC000466160459    0.0500
4      C4     -1.4096   -2.1880   -0.0132 C.3      1 ZINC000466160459    0.1200
5      N5     -0.7700   -2.5565    1.2522 N.am     1 ZINC000466160459   -0.7300
6      C6     -0.4082   -3.8351    1.4772 C.2      1 ZINC000466160459    0.5200
7      O7     -0.6122   -4.6807    0.6320 O.2      1 ZINC000466160459   -0.5200
8      C8      0.2498   -4.2142    2.7789 C.3      1 ZINC000466160459   -0.1300
9      H9      1.1778   -3.6541    2.8941 H        1 ZINC000466160459    0.1100
10     C10     0.5548   -5.7139    2.7794 C.3      1 ZINC000466160459   -0.1000
11     C11    -0.7434   -6.5003    2.5840 C.3      1 ZINC000466160459   -0.1500
12     C12    -1.6970   -6.2005    3.7449 C.3      1 ZINC000466160459    0.1600
13     H13    -1.2708   -6.5777    4.6745 H        1 ZINC000466160459    0.0700
14     C14    -3.0458   -6.8754    3.4880 C.3      1 ZINC000466160459   -0.1400
15     N15    -1.8813   -4.7461    3.8419 N.am     1 ZINC000466160459   -0.6200
16     C16    -3.1174   -4.2089    3.8396 C.2      1 ZINC000466160459    0.7100
17     O17    -4.0945   -4.9320    3.8644 O.2      1 ZINC000466160459   -0.5500
18     N18    -3.2703   -2.8702    3.8099 N.am     1 ZINC000466160459   -0.7300
19     C19    -4.6078   -2.2830    3.9218 C.3      1 ZINC000466160459    0.1600
20     H20    -5.3296   -2.9286    3.4215 H        1 ZINC000466160459    0.1300
21     C21    -4.6145   -0.9033    3.2590 C.3      1 ZINC000466160459   -0.1400
22     C22    -3.8102    0.0611    4.1390 C.3      1 ZINC000466160459   -0.1400
23     C23    -4.5682    0.2760    5.4496 C.3      1 ZINC000466160459    0.1100
24     N24    -4.9325   -1.0040    6.0440 N.am     1 ZINC000466160459   -0.5200
25     C25    -5.2573   -1.0265    7.4072 C.2      1 ZINC000466160459    0.2800
26     N26    -5.5109   -2.0976    8.1216 N.2      1 ZINC000466160459   -0.2600
27     N27    -5.7897   -1.6920    9.4330 N.pl3    1 ZINC000466160459   -0.3800
28     C28    -6.1242   -2.5740   10.5539 C.3      1 ZINC000466160459    0.1000
29     C29    -5.6958   -0.3465    9.4835 C.2      1 ZINC000466160459    0.0700
30     C30    -5.3623    0.0926    8.2486 C.2      1 ZINC000466160459   -0.2900
31     C31    -4.9758   -2.1531    5.3720 C.2      1 ZINC000466160459    0.4900
32     O32    -5.3330   -3.1504    5.9627 O.2      1 ZINC000466160459   -0.4700
33     C33    -0.6922   -3.8877    3.9420 C.3      1 ZINC000466160459    0.1200
34     H34     0.3093    1.9516    0.0502 H        1 ZINC000466160459    0.0900
35     H35    -1.1990    1.7683   -0.8769 H        1 ZINC000466160459    0.0400
36     H36    -1.2414    1.7586    0.9025 H        1 ZINC000466160459    0.0400
37     H37    -2.3130   -0.4406    0.8650 H        1 ZINC000466160459    0.0600
38     H38    -2.2706   -0.4309   -0.9144 H        1 ZINC000466160459    0.0700
39     H39    -2.3375   -2.7483   -0.1279 H        1 ZINC000466160459    0.0800
40     H40    -0.7395   -2.4215   -0.8405 H        1 ZINC000466160459    0.0800
41     H41    -0.6068   -1.8802    1.9282 H        1 ZINC000466160459    0.4000
42     H42     1.2447   -5.9444    1.9675 H        1 ZINC000466160459    0.0700
43     H43     1.0082   -5.9919    3.7308 H        1 ZINC000466160459    0.0700
44     H44    -1.2100   -6.2046    1.6443 H        1 ZINC000466160459    0.1000
45     H45    -0.5224   -7.5674    2.5610 H        1 ZINC000466160459    0.0700
46     H46    -2.8913   -7.9392    3.3075 H        1 ZINC000466160459    0.0400
47     H47    -3.6892   -6.7443    4.3581 H        1 ZINC000466160459    0.0800
48     H48    -3.5179   -6.4236    2.6156 H        1 ZINC000466160459    0.0600
49     H49    -2.4947   -2.2954    3.7145 H        1 ZINC000466160459    0.3900
50     H50    -4.1565   -0.9681    2.2720 H        1 ZINC000466160459    0.0900
51     H51    -5.6400   -0.5461    3.1654 H        1 ZINC000466160459    0.0900
52     H52    -2.8300   -0.3669    4.3494 H        1 ZINC000466160459    0.0700
53     H53    -3.6926    1.0145    3.6240 H        1 ZINC000466160459    0.1000
54     H54    -3.9366    0.8292    6.1446 H        1 ZINC000466160459    0.0900
55     H55    -5.4723    0.8520    5.2526 H        1 ZINC000466160459    0.0800
56     H56    -5.2100   -2.8712   11.0678 H        1 ZINC000466160459    0.0700
57     H57    -6.7768   -2.0462   11.2494 H        1 ZINC000466160459    0.0900
58     H58    -6.6347   -3.4609   10.1786 H        1 ZINC000466160459    0.0900
59     H59    -5.8546    0.2697   10.3561 H        1 ZINC000466160459    0.1800
60     H60    -5.2111    1.1221    7.9592 H        1 ZINC000466160459    0.1500
61     H61    -0.1841   -4.0762    4.8878 H        1 ZINC000466160459    0.0900
62     H62    -0.9915   -2.8410    3.8879 H        1 ZINC000466160459    0.0700
@<TRIPOS>BOND
1     1     2     1
2     1     34    1
3     1     35    1
4     1     36    1
5     2     3     1
6     3     4     1
7     3     37    1
8     3     38    1
9     4     5     1
10    4     39    1
11    4     40    1
12    5     6     am
13    5     41    1
14    6     7     2
15    6     8     1
16    8     9     1
17    8     33    1
18    8     10    1
19    10    11    1
20    10    42    1
21    10    43    1
22    11    12    1
23    11    44    1
24    11    45    1
25    12    13    1
26    12    14    1
27    12    15    1
28    14    46    1
29    14    47    1
30    14    48    1
31    15    16    am
32    15    33    1
33    16    17    2
34    16    18    am
35    18    19    1
36    18    49    1
37    19    20    1
38    19    31    1
39    19    21    1
40    21    22    1
41    21    50    1
42    21    51    1
43    22    23    1
44    22    52    1
45    22    53    1
46    23    24    1
47    23    54    1
48    23    55    1
49    24    25    1
50    24    31    am
51    25    30    1
52    25    26    2
53    26    27    1
54    27    28    1
55    27    29    1
56    28    56    1
57    28    57    1
58    28    58    1
59    29    30    2
60    29    59    1
61    30    60    1
62    31    32    2
63    33    61    1
64    33    62    1
@<TRIPOS>SUBSTRUCTURE
1   ZINC000466160459 1     RESIDUE    1   A     ZIN   1
@<TRIPOS>MOLECULE
ZINC000439870054
47	50	1	0	0
SMALL
USER_CHARGES
@<TRIPOS>ATOM
1      C1     -0.1567    1.1356    1.2135 C.3      1 ZINC000439870054   -0.1400
2      C2     -0.1212   -0.3552    0.8714 C.3      1 ZINC000439870054    0.0000
3      C3      0.5340   -1.1264    2.0191 C.3      1 ZINC000439870054   -0.1400
4      C4     -1.5273   -0.8574    0.6670 C.2      1 ZINC000439870054    0.1900
5      N5     -2.4962   -0.8340    1.5457 N.2      1 ZINC000439870054   -0.2900
6      N6     -3.5620   -1.3467    1.0325 N.2      1 ZINC000439870054   -0.2700
7      C7     -3.3184   -1.7181   -0.1863 C.2      1 ZINC000439870054    0.1600
8      C8     -4.2489   -2.3774   -1.1756 C.3      1 ZINC000439870054    0.2400
9      H9     -4.4445   -3.4063   -0.8737 H        1 ZINC000439870054    0.1100
10     C10    -5.5632   -1.5982   -1.2554 C.3      1 ZINC000439870054   -0.1300
11     N11    -3.5694   -2.3573   -2.4849 N.am     1 ZINC000439870054   -0.6300
12     C12    -4.2396   -2.0346   -3.6087 C.2      1 ZINC000439870054    0.5300
13     O13    -5.3946   -1.6705   -3.5425 O.2      1 ZINC000439870054   -0.4900
14     C14    -3.5539   -2.1260   -4.9475 C.3      1 ZINC000439870054   -0.0700
15     C15    -4.5145   -1.7138   -6.0331 C.2      1 ZINC000439870054    0.0900
16     C16    -4.2226   -0.7482   -6.9093 C.2      1 ZINC000439870054   -0.2400
17     S17    -5.5894   -0.5659   -8.0069 S.3      1 ZINC000439870054    0.1300
18     C18    -6.4429   -1.8469   -7.1499 C.2      1 ZINC000439870054    0.1400
19     C19    -7.7869   -2.3460   -7.4791 C.2      1 ZINC000439870054   -0.1300
20     C20    -8.5598   -1.8960   -8.4915 C.2      1 ZINC000439870054   -0.1000
21     C21    -9.7835   -2.5200   -8.6026 C.2      1 ZINC000439870054   -0.1200
22     C22   -10.0183   -3.4737   -7.6932 C.2      1 ZINC000439870054   -0.1500
23     Cl23  -11.4690   -4.4219   -7.5923 Cl       1 ZINC000439870054    0.0000
24     S24    -8.6334   -3.6265   -6.6203 S.3      1 ZINC000439870054    0.2500
25     N25    -5.6885   -2.2855   -6.1796 N.2      1 ZINC000439870054   -0.4400
26     C26    -2.1395   -2.6991   -2.5288 C.3      1 ZINC000439870054    0.0900
27     C27    -1.3465   -1.6591   -1.7286 C.3      1 ZINC000439870054    0.0900
28     N28    -2.0247   -1.4097   -0.4574 N.pl3    1 ZINC000439870054   -0.4700
29     H29     0.8603    1.4988    1.3614 H        1 ZINC000439870054    0.0700
30     H30    -0.6235    1.6850    0.3959 H        1 ZINC000439870054    0.0500
31     H31    -0.7323    1.2851    2.1270 H        1 ZINC000439870054    0.0700
32     H32     0.4544   -0.5048   -0.0420 H        1 ZINC000439870054    0.0800
33     H33     0.5593   -2.1885    1.7754 H        1 ZINC000439870054    0.0500
34     H34     1.5510   -0.7632    2.1669 H        1 ZINC000439870054    0.0700
35     H35    -0.0416   -0.9768    2.9325 H        1 ZINC000439870054    0.0700
36     H36    -5.3822   -0.6264   -1.7146 H        1 ZINC000439870054    0.0600
37     H37    -6.2806   -2.1564   -1.8571 H        1 ZINC000439870054    0.0900
38     H38    -5.9633   -1.4568   -0.2514 H        1 ZINC000439870054    0.0700
39     H39    -2.6879   -1.4641   -4.9582 H        1 ZINC000439870054    0.1100
40     H40    -3.2292   -3.1521   -5.1201 H        1 ZINC000439870054    0.1200
41     H41    -3.3064   -0.1771   -6.9394 H        1 ZINC000439870054    0.1800
42     H42    -8.2440   -1.1092   -9.1605 H        1 ZINC000439870054    0.1500
43     H43   -10.5004   -2.2586   -9.3669 H        1 ZINC000439870054    0.1600
44     H44    -1.9878   -3.6867   -2.0932 H        1 ZINC000439870054    0.0900
45     H45    -1.7973   -2.7005   -3.5637 H        1 ZINC000439870054    0.1200
46     H46    -0.3406   -2.0343   -1.5400 H        1 ZINC000439870054    0.1100
47     H47    -1.2892   -0.7297   -2.2953 H        1 ZINC000439870054    0.0900
@<TRIPOS>BOND
1     1     2     1
2     1     29    1
3     1     30    1
4     1     31    1
5     2     3     1
6     2     4     1
7     2     32    1
8     3     33    1
9     3     34    1
10    3     35    1
11    4     28    1
12    4     5     2
13    5     6     1
14    6     7     2
15    7     28    1
16    7     8     1
17    8     9     1
18    8     10    1
19    8     11    1
20    10    36    1
21    10    37    1
22    10    38    1
23    11    12    am
24    11    26    1
25    12    13    2
26    12    14    1
27    14    15    1
28    14    39    1
29    14    40    1
30    15    25    1
31    15    16    2
32    16    17    1
33    16    41    1
34    17    18    1
35    18    19    1
36    18    25    2
37    19    24    1
38    19    20    2
39    20    21    1
40    20    42    1
41    21    22    2
42    21    43    1
43    22    23    1
44    22    24    1
45    26    27    1
46    26    44    1
47    26    45    1
48    27    28    1
49    27    46    1
50    27    47    1
@<TRIPOS>SUBSTRUCTURE
1   ZINC000439870054 1     RESIDUE    1   A     ZIN   1
@<TRIPOS>MOLECULE
ZINC000558052810
54	56	1	0	0
SMALL
USER_CHARGES
@<TRIPOS>ATOM
1      C1      7.3271   -1.6161   -4.4958 C.3      1 ZINC000558052810   -0.1700
2      C2      6.4585   -0.6068   -3.7423 C.3      1 ZINC000558052810    0.1100
3      N3      5.0622   -1.0495   -3.7675 N.am     1 ZINC000558052810   -0.6100
4      C4      4.5490   -1.9156   -2.7032 C.3      1 ZINC000558052810    0.0700
5      C5      4.2498   -0.6599   -4.7698 C.2      1 ZINC000558052810    0.5600
6      O6      4.7004   -0.0331   -5.7087 O.2      1 ZINC000558052810   -0.5300
7      C7      2.8102   -0.9948   -4.7272 C.ar     1 ZINC000558052810   -0.1100
8      C8      2.1322   -1.0170   -3.5074 C.ar     1 ZINC000558052810   -0.1100
9      C9      0.7884   -1.3300   -3.4703 C.ar     1 ZINC000558052810   -0.1000
10     C10     0.1098   -1.6227   -4.6382 C.ar     1 ZINC000558052810   -0.1300
11     C11     0.7760   -1.6038   -5.8580 C.ar     1 ZINC000558052810    0.1400
12     N12     0.0847   -1.9013   -7.0372 N.am     1 ZINC000558052810   -0.6600
13     C13     0.7495   -2.3888   -8.1034 C.2      1 ZINC000558052810    0.5600
14     O14     1.9299   -2.6662   -8.0092 O.2      1 ZINC000558052810   -0.4800
15     C15     0.0462   -2.5858   -9.3832 C.ar     1 ZINC000558052810   -0.1900
16     C16    -1.3105   -2.2655   -9.5076 C.ar     1 ZINC000558052810   -0.0200
17     C17    -1.9247   -2.4691  -10.7307 C.ar     1 ZINC000558052810   -0.1900
18     C18    -1.1896   -2.9782  -11.7865 C.ar     1 ZINC000558052810    0.1500
19     N19     0.0879   -3.2745  -11.6502 N.ar     1 ZINC000558052810   -0.4900
20     C20     0.7273   -3.0938  -10.5040 C.ar     1 ZINC000558052810    0.1600
21     S21     2.4355   -3.5074  -10.3785 S.3      1 ZINC000558052810    0.0600
22     C22     2.7395   -4.1014  -12.0610 C.3      1 ZINC000558052810   -0.0700
23     C23     4.1804   -4.5227  -12.1924 C.2      1 ZINC000558052810   -0.2000
24     C24     5.2406   -3.7648  -12.5614 C.2      1 ZINC000558052810   -0.0100
25     C25     5.2203   -2.3041  -12.9315 C.3      1 ZINC000558052810   -0.0800
26     O26     6.3115   -4.5705  -12.5325 O.3      1 ZINC000558052810    0.1000
27     N27     6.0140   -5.6933  -12.1962 N.2      1 ZINC000558052810   -0.3600
28     C28     4.7396   -5.7989  -11.9529 C.2      1 ZINC000558052810    0.0300
29     C29     4.0043   -7.0385  -11.5126 C.3      1 ZINC000558052810   -0.0800
30     C30     2.1239   -1.2841   -5.9067 C.ar     1 ZINC000558052810   -0.0700
31     H31     7.2469   -2.5926   -4.0182 H        1 ZINC000558052810    0.0600
32     H32     6.9874   -1.6879   -5.5290 H        1 ZINC000558052810    0.0600
33     H33     8.3660   -1.2867   -4.4770 H        1 ZINC000558052810    0.0700
34     H34     6.7983   -0.5350   -2.7091 H        1 ZINC000558052810    0.0800
35     H35     6.5388    0.3697   -4.2199 H        1 ZINC000558052810    0.0800
36     H36     4.2266   -1.3038   -1.8607 H        1 ZINC000558052810    0.0600
37     H37     3.7031   -2.4910   -3.0792 H        1 ZINC000558052810    0.0800
38     H38     5.3356   -2.5964   -2.3778 H        1 ZINC000558052810    0.0700
39     H39     2.6591   -0.7896   -2.5925 H        1 ZINC000558052810    0.1400
40     H40     0.2656   -1.3467   -2.5254 H        1 ZINC000558052810    0.1400
41     H41    -0.9416   -1.8673   -4.6028 H        1 ZINC000558052810    0.1300
42     H42    -0.8731   -1.7566   -7.0875 H        1 ZINC000558052810    0.4100
43     H43    -1.8645   -1.8695   -8.6693 H        1 ZINC000558052810    0.1400
44     H44    -2.9705   -2.2326  -10.8601 H        1 ZINC000558052810    0.1500
45     H45    -1.6714   -3.1362  -12.7401 H        1 ZINC000558052810    0.1700
46     H46     2.0916   -4.9531  -12.2682 H        1 ZINC000558052810    0.1000
47     H47     2.5282   -3.3027  -12.7721 H        1 ZINC000558052810    0.1000
48     H48     5.3779   -1.7006  -12.0376 H        1 ZINC000558052810    0.0900
49     H49     6.0128   -2.1007  -13.6516 H        1 ZINC000558052810    0.0900
50     H50     4.2554   -2.0545  -13.3729 H        1 ZINC000558052810    0.0900
51     H51     3.9943   -7.0876  -10.4237 H        1 ZINC000558052810    0.0800
52     H52     2.9802   -7.0047  -11.8842 H        1 ZINC000558052810    0.0800
53     H53     4.5066   -7.9199  -11.9114 H        1 ZINC000558052810    0.0800
54     H54     2.6433   -1.2686   -6.8535 H        1 ZINC000558052810    0.1500
@<TRIPOS>BOND
1     1     2     1
2     1     31    1
3     1     32    1
4     1     33    1
5     2     3     1
6     2     34    1
7     2     35    1
8     3     4     1
9     3     5     am
10    4     36    1
11    4     37    1
12    4     38    1
13    5     6     2
14    5     7     1
15    7     30    ar
16    7     8     ar
17    8     9     ar
18    8     39    1
19    9     10    ar
20    9     40    1
21    10    11    ar
22    10    41    1
23    11    12    1
24    11    30    ar
25    12    13    am
26    12    42    1
27    13    14    2
28    13    15    1
29    15    20    ar
30    15    16    ar
31    16    17    ar
32    16    43    1
33    17    18    ar
34    17    44    1
35    18    19    ar
36    18    45    1
37    19    20    ar
38    20    21    1
39    21    22    1
40    22    23    1
41    22    46    1
42    22    47    1
43    23    28    1
44    23    24    2
45    24    25    1
46    24    26    1
47    25    48    1
48    25    49    1
49    25    50    1
50    26    27    1
51    27    28    2
52    28    29    1
53    29    51    1
54    29    52    1
55    29    53    1
56    30    54    1
@<TRIPOS>SUBSTRUCTURE
1   ZINC000558052810 1     RESIDUE    1   A     ZIN   1
@<TRIPOS>MOLECULE
ZINC001596273020
58	59	1	0	0
SMALL
USER_CHARGES
@<TRIPOS>ATOM
1      C1      0.1308    1.4503    0.2088 C.3      1 ZINC001596273020   -0.1900
2      C2      0.0188   -0.0656    0.0344 C.3      1 ZINC001596273020   -0.0200
3      N3      0.5763   -0.4511   -1.2689 N.4      1 ZINC001596273020   -0.3900
4      H4      0.1245    0.0799   -1.9983 H        1 ZINC001596273020    0.4300
5      C5      2.0192   -0.1759   -1.2850 C.3      1 ZINC001596273020   -0.0100
6      C6      2.5730   -0.4396   -2.6866 C.3      1 ZINC001596273020   -0.1900
7      C7      0.3486   -1.8847   -1.4942 C.3      1 ZINC001596273020   -0.0100
8      C8     -1.1541   -2.1518   -1.6017 C.3      1 ZINC001596273020    0.0300
9      O9     -1.6718   -1.4997   -2.7631 O.3      1 ZINC001596273020   -0.3900
10     C10    -3.0751   -1.6868   -2.9577 C.3      1 ZINC001596273020    0.0500
11     C11    -3.5173   -0.9490   -4.2230 C.3      1 ZINC001596273020    0.1400
12     N12    -2.8792   -1.5589   -5.3922 N.am     1 ZINC001596273020   -0.7500
13     C13    -3.1232   -1.0706   -6.6245 C.2      1 ZINC001596273020    0.7200
14     O14    -3.8730   -0.1239   -6.7658 O.2      1 ZINC001596273020   -0.6000
15     N15    -2.5362   -1.6317   -7.7001 N.am     1 ZINC001596273020   -0.6300
16     C16    -1.6051   -2.7867   -7.7284 C.3      1 ZINC001596273020    0.1100
17     C17    -2.0750   -3.6042   -8.9661 C.3      1 ZINC001596273020   -0.0800
18     H18    -1.2187   -4.0929   -9.4309 H        1 ZINC001596273020    0.1200
19     C19    -3.0568   -4.6497   -8.4760 C.3      1 ZINC001596273020   -0.1000
20     C20    -4.0996   -5.0184   -9.5219 C.3      1 ZINC001596273020   -0.1200
21     C21    -4.8586   -3.7417   -9.9073 C.3      1 ZINC001596273020   -0.1200
22     C22    -3.8886   -2.8385  -10.6622 C.3      1 ZINC001596273020   -0.0800
23     C23    -2.6353   -2.5564   -9.9025 C.3      1 ZINC001596273020   -0.1400
24     C24    -1.5663   -2.3401  -10.9424 C.2      1 ZINC001596273020    0.5000
25     O25    -1.6883   -1.4494  -11.7660 O.co2    1 ZINC001596273020   -0.6900
26     O26    -0.5794   -3.0559  -10.9603 O.co2    1 ZINC001596273020   -0.6900
27     C27    -2.6803   -1.2378   -9.1228 C.3      1 ZINC001596273020    0.1600
28     H28     1.1818    1.7320    0.2723 H        1 ZINC001596273020    0.0800
29     H29    -0.3281    1.9491   -0.6448 H        1 ZINC001596273020    0.0800
30     H30    -0.3815    1.7496    1.1232 H        1 ZINC001596273020    0.1000
31     H31     0.5736   -0.5647    0.8289 H        1 ZINC001596273020    0.1300
32     H32    -1.0295   -0.3604    0.0827 H        1 ZINC001596273020    0.1300
33     H33     2.1935    0.8657   -1.0154 H        1 ZINC001596273020    0.1300
34     H34     2.5210   -0.8256   -0.5679 H        1 ZINC001596273020    0.1300
35     H35     2.4989   -1.5034   -2.9124 H        1 ZINC001596273020    0.0800
36     H36     1.9971    0.1280   -3.4175 H        1 ZINC001596273020    0.0800
37     H37     3.6177   -0.1312   -2.7284 H        1 ZINC001596273020    0.1000
38     H38     0.8389   -2.1896   -2.4187 H        1 ZINC001596273020    0.1400
39     H39     0.7599   -2.4534   -0.6601 H        1 ZINC001596273020    0.1400
40     H40    -1.3277   -3.2250   -1.6799 H        1 ZINC001596273020    0.1000
41     H41    -1.6561   -1.7662   -0.7144 H        1 ZINC001596273020    0.0700
42     H42    -3.2885   -2.7504   -3.0640 H        1 ZINC001596273020    0.0700
43     H43    -3.6169   -1.2915   -2.0985 H        1 ZINC001596273020    0.0700
44     H44    -4.6005   -1.0170   -4.3234 H        1 ZINC001596273020    0.0900
45     H45    -3.2239    0.0985   -4.1540 H        1 ZINC001596273020    0.0700
46     H46    -2.2810   -2.3141   -5.2795 H        1 ZINC001596273020    0.3900
47     H47    -0.5775   -2.4479   -7.8601 H        1 ZINC001596273020    0.0700
48     H48    -1.7011   -3.3791   -6.8185 H        1 ZINC001596273020    0.0600
49     H49    -2.5046   -5.5476   -8.1986 H        1 ZINC001596273020    0.0500
50     H50    -3.5662   -4.2661   -7.5920 H        1 ZINC001596273020    0.0400
51     H51    -3.6080   -5.4343  -10.4014 H        1 ZINC001596273020    0.0700
52     H52    -4.7943   -5.7490   -9.1076 H        1 ZINC001596273020    0.0500
53     H53    -5.7041   -3.9933  -10.5476 H        1 ZINC001596273020    0.0600
54     H54    -5.2117   -3.2359   -9.0087 H        1 ZINC001596273020    0.0500
55     H55    -3.6271   -3.3172  -11.6060 H        1 ZINC001596273020    0.0600
56     H56    -4.3868   -1.8934  -10.8785 H        1 ZINC001596273020    0.0600
57     H57    -3.6319   -0.7321   -9.2864 H        1 ZINC001596273020    0.0700
58     H58    -1.8514   -0.5940   -9.4171 H        1 ZINC001596273020    0.0700
@<TRIPOS>BOND
1     1     2     1
2     1     28    1
3     1     29    1
4     1     30    1
5     2     3     1
6     2     31    1
7     2     32    1
8     3     4     1
9     3     5     1
10    3     7     1
11    5     6     1
12    5     33    1
13    5     34    1
14    6     35    1
15    6     36    1
16    6     37    1
17    7     8     1
18    7     38    1
19    7     39    1
20    8     9     1
21    8     40    1
22    8     41    1
23    9     10    1
24    10    11    1
25    10    42    1
26    10    43    1
27    11    12    1
28    11    44    1
29    11    45    1
30    12    13    am
31    12    46    1
32    13    14    2
33    13    15    am
34    15    27    1
35    15    16    1
36    16    17    1
37    16    47    1
38    16    48    1
39    17    18    1
40    17    23    1
41    17    19    1
42    19    20    1
43    19    49    1
44    19    50    1
45    20    21    1
46    20    51    1
47    20    52    1
48    21    22    1
49    21    53    1
50    21    54    1
51    22    23    1
52    22    55    1
53    22    56    1
54    23    24    1
55    23    27    1
56    24    25    ar
57    24    26    ar
58    27    57    1
59    27    58    1
@<TRIPOS>SUBSTRUCTURE
1   ZINC001596273020 1     RESIDUE    1   A     ZIN   1
@<TRIPOS>MOLECULE
ZINC000772422035
49	50	1	0	0
SMALL
USER_CHARGES
@<TRIPOS>ATOM
1      C1     -0.7260   -0.9479   -2.0481 C.3      1 ZINC000772422035    0.0300
2      O2     -0.5917   -2.3294   -1.7083 O.3      1 ZINC000772422035   -0.3900
3      C3     -1.8366   -3.0075   -1.5286 C.3      1 ZINC000772422035    0.0600
4      C4     -1.5729   -4.4712   -1.1698 C.3      1 ZINC000772422035    0.0700
5      O5     -0.9184   -4.5403    0.0986 O.3      1 ZINC000772422035   -0.3000
6      C6     -0.6110   -5.7761    0.5666 C.ar     1 ZINC000772422035    0.3300
7      C7      0.0207   -5.9083    1.7963 C.ar     1 ZINC000772422035   -0.1700
8      C8      0.3288   -7.1747    2.2625 C.ar     1 ZINC000772422035   -0.0200
9      C9      1.0137   -7.3611    3.5919 C.3      1 ZINC000772422035    0.1100
10     O10     0.0143   -7.4900    4.6373 O.3      1 ZINC000772422035   -0.3500
11     C11     0.4624   -7.6634    5.8907 C.2      1 ZINC000772422035    0.4700
12     O12     1.6504   -7.7061    6.1070 O.2      1 ZINC000772422035   -0.5000
13     C13    -0.5162   -7.8048    7.0279 C.3      1 ZINC000772422035   -0.1100
14     C14     0.2495   -7.9898    8.3396 C.3      1 ZINC000772422035    0.0000
15     H15     0.9730   -7.1827    8.4548 H        1 ZINC000772422035    0.1000
16     C16     0.9825   -9.3326    8.3173 C.3      1 ZINC000772422035   -0.1500
17     C17    -0.7187   -7.9651    9.4942 C.2      1 ZINC000772422035   -0.2000
18     C18    -0.6833   -7.1775   10.5956 C.2      1 ZINC000772422035   -0.0200
19     C19     0.3495   -6.1301   10.9230 C.3      1 ZINC000772422035   -0.0800
20     O20    -1.7483   -7.5138   11.3369 O.3      1 ZINC000772422035    0.1000
21     N21    -2.3958   -8.3903   10.8129 N.2      1 ZINC000772422035   -0.3600
22     C22    -1.8776   -8.7543    9.6755 C.2      1 ZINC000772422035    0.0300
23     C23    -2.4034   -9.8139    8.7418 C.3      1 ZINC000772422035   -0.0800
24     C24    -0.0077   -8.2689    1.4779 C.ar     1 ZINC000772422035   -0.1900
25     C25    -0.6350   -8.0631    0.2650 C.ar     1 ZINC000772422035    0.1400
26     N26    -0.9208   -6.8438   -0.1502 N.ar     1 ZINC000772422035   -0.5300
27     H27     0.2629   -0.5051   -2.1671 H        1 ZINC000772422035    0.0900
28     H28    -1.2802   -0.8557   -2.9821 H        1 ZINC000772422035    0.0400
29     H29    -1.2632   -0.4290   -1.2541 H        1 ZINC000772422035    0.0400
30     H30    -2.3969   -2.5314   -0.7239 H        1 ZINC000772422035    0.0600
31     H31    -2.4139   -2.9580   -2.4519 H        1 ZINC000772422035    0.0700
32     H32    -2.5196   -5.0093   -1.1199 H        1 ZINC000772422035    0.0800
33     H33    -0.9378   -4.9233   -1.9316 H        1 ZINC000772422035    0.0800
34     H34     0.2686   -5.0347    2.3809 H        1 ZINC000772422035    0.1400
35     H35     1.6263   -8.2621    3.5618 H        1 ZINC000772422035    0.0900
36     H36     1.6466   -6.4981    3.7987 H        1 ZINC000772422035    0.0900
37     H37    -1.1327   -6.9081    7.0904 H        1 ZINC000772422035    0.1100
38     H38    -1.1530   -8.6721    6.8536 H        1 ZINC000772422035    0.1100
39     H39     0.2771  -10.1276    8.0756 H        1 ZINC000772422035    0.0600
40     H40     1.7699   -9.3042    7.5641 H        1 ZINC000772422035    0.0800
41     H41     1.4227   -9.5225    9.2962 H        1 ZINC000772422035    0.0600
42     H42     0.0824   -5.1920   10.4364 H        1 ZINC000772422035    0.0900
43     H43     0.3871   -5.9818   12.0022 H        1 ZINC000772422035    0.0900
44     H44     1.3259   -6.4589   10.5672 H        1 ZINC000772422035    0.0900
45     H45    -3.0343   -9.3497    7.9839 H        1 ZINC000772422035    0.0800
46     H46    -1.5675  -10.3198    8.2587 H        1 ZINC000772422035    0.0800
47     H47    -2.9888  -10.5388    9.3076 H        1 ZINC000772422035    0.0800
48     H48     0.2189   -9.2706    1.8121 H        1 ZINC000772422035    0.1400
49     H49    -0.8991   -8.9112   -0.3493 H        1 ZINC000772422035    0.1700
@<TRIPOS>BOND
1     1     2     1
2     1     27    1
3     1     28    1
4     1     29    1
5     2     3     1
6     3     4     1
7     3     30    1
8     3     31    1
9     4     5     1
10    4     32    1
11    4     33    1
12    5     6     1
13    6     26    ar
14    6     7     ar
15    7     8     ar
16    7     34    1
17    8     9     1
18    8     24    ar
19    9     10    1
20    9     35    1
21    9     36    1
22    10    11    1
23    11    12    2
24    11    13    1
25    13    14    1
26    13    37    1
27    13    38    1
28    14    15    1
29    14    16    1
30    14    17    1
31    16    39    1
32    16    40    1
33    16    41    1
34    17    22    1
35    17    18    2
36    18    19    1
37    18    20    1
38    19    42    1
39    19    43    1
40    19    44    1
41    20    21    1
42    21    22    2
43    22    23    1
44    23    45    1
45    23    46    1
46    23    47    1
47    24    25    ar
48    24    48    1
49    25    26    ar
50    25    49    1
@<TRIPOS>SUBSTRUCTURE
1   ZINC000772422035 1     RESIDUE    1   A     ZIN   1
@<TRIPOS>MOLECULE
ZINC000504860563
42	44	1	0	0
SMALL
USER_CHARGES
@<TRIPOS>ATOM
1      O1      0.0482    0.0098    0.1818 O.2      1 ZINC000504860563   -0.5100
2      C2     -0.0144    1.2113    0.0087 C.2      1 ZINC000504860563    0.5700
3      C3      1.2152    2.0305    0.0594 C.ar     1 ZINC000504860563    0.0500
4      N4      1.1271    3.3555    0.0262 N.ar     1 ZINC000504860563   -0.4100
5      C5      2.1952    4.1197    0.0696 C.ar     1 ZINC000504860563    0.0600
6      C6      3.4661    3.5698    0.1523 C.ar     1 ZINC000504860563   -0.1000
7      C7      3.6109    2.1945    0.1897 C.ar     1 ZINC000504860563   -0.1700
8      C8      2.4638    1.4052    0.1479 C.ar     1 ZINC000504860563    0.1400
9      O9      2.5562    0.0523    0.1825 O.3      1 ZINC000504860563   -0.2600
10     C10     3.8690   -0.5064    0.2628 C.3      1 ZINC000504860563   -0.0100
11     C11     3.7727   -2.0331    0.2915 C.3      1 ZINC000504860563    0.2800
12     F12     3.0270   -2.4324    1.4059 F        1 ZINC000504860563   -0.1900
13     F13     3.1449   -2.4828   -0.8751 F        1 ZINC000504860563   -0.1900
14     N14    -1.2041    1.7960   -0.2350 N.am     1 ZINC000504860563   -0.6000
15     C15    -1.2774    3.2119   -0.6204 C.3      1 ZINC000504860563    0.0800
16     C16    -2.0773    3.3279   -1.9217 C.3      1 ZINC000504860563   -0.1500
17     C17    -3.4396    2.6546   -1.7401 C.3      1 ZINC000504860563    0.1600
18     N18    -4.2203    2.7925   -2.9720 N.pl3    1 ZINC000504860563   -0.3600
19     C19    -4.1618    1.9752   -4.0454 C.2      1 ZINC000504860563    0.0700
20     C20    -5.0349    2.4431   -4.9680 C.2      1 ZINC000504860563   -0.1900
21     Cl21   -5.3409    1.7490   -6.5295 Cl       1 ZINC000504860563   -0.0400
22     C22    -5.6477    3.5851   -4.4402 C.2      1 ZINC000504860563    0.0600
23     N23    -5.1639    3.7921   -3.2422 N.2      1 ZINC000504860563   -0.2800
24     C24    -3.2391    1.1700   -1.4270 C.3      1 ZINC000504860563   -0.1400
25     C25    -2.4519    1.0280   -0.1261 C.3      1 ZINC000504860563    0.1200
26     H26     2.0818    5.1933    0.0400 H        1 ZINC000504860563    0.1700
27     H27     4.3352    4.2100    0.1868 H        1 ZINC000504860563    0.1500
28     H28     4.5901    1.7434    0.2540 H        1 ZINC000504860563    0.1500
29     H29     4.4500   -0.1953   -0.6055 H        1 ZINC000504860563    0.1000
30     H30     4.3581   -0.1560    1.1717 H        1 ZINC000504860563    0.1000
31     H31     4.7740   -2.4592    0.3527 H        1 ZINC000504860563    0.1300
32     H32    -1.7747    3.7794    0.1661 H        1 ZINC000504860563    0.0700
33     H33    -0.2710    3.6013   -0.7742 H        1 ZINC000504860563    0.1600
34     H34    -2.2214    4.3800   -2.1676 H        1 ZINC000504860563    0.0900
35     H35    -1.5333    2.8364   -2.7283 H        1 ZINC000504860563    0.0700
36     H36    -3.9729    3.1303   -0.9170 H        1 ZINC000504860563    0.1100
37     H37    -3.5310    1.1047   -4.1494 H        1 ZINC000504860563    0.1800
38     H38    -6.3938    4.1893   -4.9349 H        1 ZINC000504860563    0.1900
39     H39    -4.2101    0.6863   -1.3209 H        1 ZINC000504860563    0.0900
40     H40    -2.6841    0.6989   -2.2382 H        1 ZINC000504860563    0.0800
41     H41    -2.2216   -0.0229    0.0488 H        1 ZINC000504860563    0.1000
42     H42    -3.0427    1.4176    0.7030 H        1 ZINC000504860563    0.0800
@<TRIPOS>BOND
1     1     2     2
2     2     3     1
3     2     14    am
4     3     8     ar
5     3     4     ar
6     4     5     ar
7     5     6     ar
8     5     26    1
9     6     7     ar
10    6     27    1
11    7     8     ar
12    7     28    1
13    8     9     1
14    9     10    1
15    10    11    1
16    10    29    1
17    10    30    1
18    11    12    1
19    11    13    1
20    11    31    1
21    14    25    1
22    14    15    1
23    15    16    1
24    15    32    1
25    15    33    1
26    16    17    1
27    16    34    1
28    16    35    1
29    17    18    1
30    17    24    1
31    17    36    1
32    18    23    1
33    18    19    1
34    19    20    2
35    19    37    1
36    20    21    1
37    20    22    1
38    22    23    2
39    22    38    1
40    24    25    1
41    24    39    1
42    24    40    1
43    25    41    1
44    25    42    1
@<TRIPOS>SUBSTRUCTURE
1   ZINC000504860563 1     RESIDUE    1   A     ZIN   1
@<TRIPOS>MOLECULE
ZINC000489986384
56	59	1	0	0
SMALL
USER_CHARGES
@<TRIPOS>ATOM
1      O1      0.0021   -0.0041    0.0020 O.2      1 ZINC000489986384   -0.5000
2      C2     -0.0144    1.2086    0.0087 C.2      1 ZINC000489986384    0.4900
3      C3      1.2803    1.9798    0.0005 C.3      1 ZINC000489986384    0.0900
4      N4      2.4066    1.0431   -0.0153 N.pl3    1 ZINC000489986384   -0.4700
5      C5      3.0427    0.5096    1.0878 C.ar     1 ZINC000489986384    0.0700
6      C6      2.8755    0.6439    2.4590 C.ar     1 ZINC000489986384   -0.1100
7      C7      3.7029   -0.0472    3.3189 C.ar     1 ZINC000489986384   -0.0900
8      C8      4.7001   -0.8741    2.8223 C.ar     1 ZINC000489986384   -0.1300
9      C9      4.8797   -1.0181    1.4755 C.ar     1 ZINC000489986384   -0.0600
10     C10     4.0528   -0.3285    0.5853 C.ar     1 ZINC000489986384    0.0500
11     N11     3.9824   -0.2641   -0.7692 N.2      1 ZINC000489986384   -0.4600
12     C12     3.0157    0.5330   -1.1196 C.2      1 ZINC000489986384    0.2800
13     C13     2.6337    0.8536   -2.5417 C.3      1 ZINC000489986384    0.1400
14     O14     1.6573   -0.0857   -2.9960 O.3      1 ZINC000489986384   -0.3000
15     C15     1.2027    0.0634   -4.2680 C.ar     1 ZINC000489986384    0.1300
16     C16     1.6907    1.0890   -5.0645 C.ar     1 ZINC000489986384   -0.2100
17     C17     1.2273    1.2381   -6.3574 C.ar     1 ZINC000489986384   -0.0800
18     C18     0.2776    0.3665   -6.8575 C.ar     1 ZINC000489986384   -0.1600
19     C19    -0.2107   -0.6562   -6.0655 C.ar     1 ZINC000489986384   -0.0800
20     C20     0.2540   -0.8133   -4.7740 C.ar     1 ZINC000489986384   -0.1500
21     N21    -1.1906    1.8666    0.0178 N.am     1 ZINC000489986384   -0.7300
22     C22    -2.4492    1.1169    0.0197 C.3      1 ZINC000489986384    0.1300
23     C23    -3.6255    2.0952    0.0306 C.3      1 ZINC000489986384   -0.0600
24     H24    -3.5240    2.7762    0.8757 H        1 ZINC000489986384    0.0900
25     C25    -3.6340    2.8971   -1.2723 C.3      1 ZINC000489986384    0.0800
26     O26    -4.6602    3.8899   -1.2140 O.3      1 ZINC000489986384   -0.5700
27     C27    -4.9162    1.3275    0.1564 C.ar     1 ZINC000489986384   -0.0700
28     C28    -5.2613    0.3938   -0.8027 C.ar     1 ZINC000489986384   -0.1100
29     C29    -6.4453   -0.3104   -0.6873 C.ar     1 ZINC000489986384   -0.1200
30     C30    -7.2839   -0.0811    0.3874 C.ar     1 ZINC000489986384   -0.1200
31     C31    -6.9384    0.8520    1.3470 C.ar     1 ZINC000489986384   -0.1200
32     C32    -5.7524    1.5531    1.2339 C.ar     1 ZINC000489986384   -0.1100
33     H33     1.3211    2.6120   -0.8866 H        1 ZINC000489986384    0.1200
34     H34     1.3381    2.6024    0.8933 H        1 ZINC000489986384    0.1200
35     H35     2.1012    1.2868    2.8508 H        1 ZINC000489986384    0.1200
36     H36     3.5740    0.0563    4.3861 H        1 ZINC000489986384    0.1300
37     H37     5.3412   -1.4091    3.5073 H        1 ZINC000489986384    0.1300
38     H38     5.6596   -1.6638    1.0997 H        1 ZINC000489986384    0.1300
39     H39     2.2187    1.8604   -2.5883 H        1 ZINC000489986384    0.0800
40     H40     3.5173    0.7951   -3.1773 H        1 ZINC000489986384    0.1000
41     H41     2.4320    1.7705   -4.6741 H        1 ZINC000489986384    0.1300
42     H42     1.6069    2.0364   -6.9779 H        1 ZINC000489986384    0.1300
43     H43    -0.0836    0.4850   -7.8684 H        1 ZINC000489986384    0.1200
44     H44    -0.9527   -1.3356   -6.4583 H        1 ZINC000489986384    0.1300
45     H45    -0.1277   -1.6124   -4.1558 H        1 ZINC000489986384    0.1300
46     H46    -1.2037    2.8365    0.0232 H        1 ZINC000489986384    0.4000
47     H47    -2.5027    0.4944   -0.8734 H        1 ZINC000489986384    0.0800
48     H48    -2.4943    0.4847    0.9065 H        1 ZINC000489986384    0.0800
49     H49    -2.6670    3.3817   -1.4071 H        1 ZINC000489986384    0.0500
50     H50    -3.8243    2.2267   -2.1104 H        1 ZINC000489986384    0.0500
51     H51    -4.7235    4.4373   -2.0087 H        1 ZINC000489986384    0.3800
52     H52    -4.6061    0.2147   -1.6423 H        1 ZINC000489986384    0.1200
53     H53    -6.7152   -1.0394   -1.4370 H        1 ZINC000489986384    0.1200
54     H54    -8.2092   -0.6308    0.4772 H        1 ZINC000489986384    0.1200
55     H55    -7.5937    1.0313    2.1865 H        1 ZINC000489986384    0.1200
56     H56    -5.4824    2.2821    1.9836 H        1 ZINC000489986384    0.1200
@<TRIPOS>BOND
1     1     2     2
2     2     3     1
3     2     21    am
4     3     4     1
5     3     33    1
6     3     34    1
7     4     12    1
8     4     5     1
9     5     10    ar
10    5     6     ar
11    6     7     ar
12    6     35    1
13    7     8     ar
14    7     36    1
15    8     9     ar
16    8     37    1
17    9     10    ar
18    9     38    1
19    10    11    1
20    11    12    2
21    12    13    1
22    13    14    1
23    13    39    1
24    13    40    1
25    14    15    1
26    15    20    ar
27    15    16    ar
28    16    17    ar
29    16    41    1
30    17    18    ar
31    17    42    1
32    18    19    ar
33    18    43    1
34    19    20    ar
35    19    44    1
36    20    45    1
37    21    22    1
38    21    46    1
39    22    23    1
40    22    47    1
41    22    48    1
42    23    24    1
43    23    25    1
44    23    27    1
45    25    26    1
46    25    49    1
47    25    50    1
48    26    51    1
49    27    32    ar
50    27    28    ar
51    28    29    ar
52    28    52    1
53    29    30    ar
54    29    53    1
55    30    31    ar
56    30    54    1
57    31    32    ar
58    31    55    1
59    32    56    1
@<TRIPOS>SUBSTRUCTURE
1   ZINC000489986384 1     RESIDUE    1   A     ZIN   1
@<TRIPOS>MOLECULE
ZINC000579444893
58	60	1	0	0
SMALL
USER_CHARGES
@<TRIPOS>ATOM
1      C1     -0.4018    0.6956   -0.2436 C.3      1 ZINC000579444893   -0.1600
2      C2      0.0861   -0.7447   -0.4124 C.3      1 ZINC000579444893    0.1700
3      H3      0.6819   -0.8223   -1.3218 H        1 ZINC000579444893    0.0900
4      N4      0.9058   -1.1210    0.7420 N.am     1 ZINC000579444893   -0.7400
5      C5      2.2183   -0.8158    0.7648 C.2      1 ZINC000579444893    0.7100
6      O6      2.7221   -0.2280   -0.1729 O.2      1 ZINC000579444893   -0.5900
7      N7      2.9724   -1.1620    1.8268 N.am     1 ZINC000579444893   -0.6300
8      C8      2.3654   -1.8701    2.9565 C.3      1 ZINC000579444893    0.0800
9      C9      4.3991   -0.8302    1.8515 C.3      1 ZINC000579444893    0.1100
10     C10     4.6058    0.4755    2.6218 C.3      1 ZINC000579444893    0.0600
11     H11     4.2115    0.3757    3.6330 H        1 ZINC000579444893    0.1000
12     C12     3.8932    1.6338    1.8924 C.3      1 ZINC000579444893   -0.1600
13     C13     4.8788    2.8185    2.0713 C.3      1 ZINC000579444893    0.0800
14     H14     4.7467    3.2929    3.0437 H        1 ZINC000579444893    0.1000
15     F15     4.7346    3.7507    1.0381 F        1 ZINC000579444893   -0.2000
16     C16     6.2491    2.1012    1.9854 C.3      1 ZINC000579444893    0.0200
17     N17     6.0420    0.8054    2.6737 N.3      1 ZINC000579444893   -0.5000
18     C18     6.8482   -0.2547    2.0539 C.3      1 ZINC000579444893    0.1000
19     C19     8.3111    0.0353    2.2701 C.2      1 ZINC000579444893    0.0800
20     C20     9.0233   -0.2441    3.3862 C.2      1 ZINC000579444893   -0.2500
21     C21    10.3382    0.1843    3.1762 C.2      1 ZINC000579444893    0.0400
22     N22    10.4126    0.7023    1.9770 N.2      1 ZINC000579444893   -0.2900
23     N23     9.1469    0.6149    1.3832 N.pl3    1 ZINC000579444893   -0.3700
24     C24     8.7911    1.0792    0.0400 C.3      1 ZINC000579444893    0.0900
25     C25    -1.1184   -1.6831   -0.5103 C.3      1 ZINC000579444893   -0.1000
26     C26    -1.9116   -1.4129   -1.8129 C.3      1 ZINC000579444893   -0.1200
27     C27    -2.6494   -2.7543   -2.0482 C.3      1 ZINC000579444893   -0.1300
28     C28    -1.6259   -3.8283   -1.6256 C.3      1 ZINC000579444893   -0.1300
29     C29    -0.6524   -3.1472   -0.6478 C.3      1 ZINC000579444893   -0.1200
30     H30     0.4530    1.3522   -0.0819 H        1 ZINC000579444893    0.0600
31     H31    -0.9339    1.0066   -1.1427 H        1 ZINC000579444893    0.0700
32     H32    -1.0722    0.7540    0.6138 H        1 ZINC000579444893    0.0500
33     H33     0.5039   -1.5899    1.4900 H        1 ZINC000579444893    0.4000
34     H34     2.3473   -2.9397    2.7475 H        1 ZINC000579444893    0.0600
35     H35     2.9504   -1.6858    3.8576 H        1 ZINC000579444893    0.0800
36     H36     1.3468   -1.5117    3.1050 H        1 ZINC000579444893    0.0700
37     H37     4.9503   -1.6325    2.3419 H        1 ZINC000579444893    0.0900
38     H38     4.7622   -0.7111    0.8307 H        1 ZINC000579444893    0.0900
39     H39     3.7594    1.3999    0.8363 H        1 ZINC000579444893    0.1100
40     H40     2.9355    1.8547    2.3636 H        1 ZINC000579444893    0.0800
41     H41     6.5279    1.9390    0.9442 H        1 ZINC000579444893    0.0600
42     H42     7.0149    2.6833    2.4979 H        1 ZINC000579444893    0.0900
43     H43     6.5971   -1.2139    2.5067 H        1 ZINC000579444893    0.1100
44     H44     6.6393   -0.2919    0.9847 H        1 ZINC000579444893    0.0500
45     H45     8.6436   -0.7144    4.2812 H        1 ZINC000579444893    0.1500
46     H46    11.1513    0.1022    3.8822 H        1 ZINC000579444893    0.1800
47     H47     8.8933    0.2565   -0.6677 H        1 ZINC000579444893    0.0800
48     H48     7.7603    1.4333    0.0391 H        1 ZINC000579444893    0.0800
49     H49     9.4552    1.8932   -0.2508 H        1 ZINC000579444893    0.0900
50     H50    -1.7623   -1.5680    0.3617 H        1 ZINC000579444893    0.0800
51     H51    -2.6237   -0.6002   -1.6701 H        1 ZINC000579444893    0.0700
52     H52    -1.2349   -1.1943   -2.6389 H        1 ZINC000579444893    0.0700
53     H53    -3.5425   -2.8127   -1.4260 H        1 ZINC000579444893    0.0700
54     H54    -2.9087   -2.8676   -3.1008 H        1 ZINC000579444893    0.0700
55     H55    -2.1351   -4.6551   -1.1304 H        1 ZINC000579444893    0.0600
56     H56    -1.0843   -4.1921   -2.4988 H        1 ZINC000579444893    0.0600
57     H57     0.3615   -3.1804   -1.0464 H        1 ZINC000579444893    0.0600
58     H58    -0.6892   -3.6434    0.3220 H        1 ZINC000579444893    0.0600
@<TRIPOS>BOND
1     1     2     1
2     1     30    1
3     1     31    1
4     1     32    1
5     2     3     1
6     2     4     1
7     2     25    1
8     4     5     am
9     4     33    1
10    5     6     2
11    5     7     am
12    7     8     1
13    7     9     1
14    8     34    1
15    8     35    1
16    8     36    1
17    9     10    1
18    9     37    1
19    9     38    1
20    10    11    1
21    10    17    1
22    10    12    1
23    12    13    1
24    12    39    1
25    12    40    1
26    13    14    1
27    13    15    1
28    13    16    1
29    16    17    1
30    16    41    1
31    16    42    1
32    17    18    1
33    18    19    1
34    18    43    1
35    18    44    1
36    19    23    1
37    19    20    2
38    20    21    1
39    20    45    1
40    21    22    2
41    21    46    1
42    22    23    1
43    23    24    1
44    24    47    1
45    24    48    1
46    24    49    1
47    25    29    1
48    25    26    1
49    25    50    1
50    26    27    1
51    26    51    1
52    26    52    1
53    27    28    1
54    27    53    1
55    27    54    1
56    28    29    1
57    28    55    1
58    28    56    1
59    29    57    1
60    29    58    1
@<TRIPOS>SUBSTRUCTURE
1   ZINC000579444893 1     RESIDUE    1   A     ZIN   1
@<TRIPOS>MOLECULE
ZINC001570985666
49	52	1	0	0
SMALL
USER_CHARGES
@<TRIPOS>ATOM
1      C1     -0.0187    1.5258    0.0104 C.3      1 ZINC001570985666   -0.1600
2      C2      0.0021   -0.0041    0.0020 C.3      1 ZINC001570985666    0.1300
3      H3      0.5220   -0.3627   -0.8863 H        1 ZINC001570985666    0.0800
4      C4     -1.4418   -0.5487    0.0209 C.3      1 ZINC001570985666    0.1400
5      H5     -2.1270    0.1896    0.4375 H        1 ZINC001570985666    0.1100
6      N6     -1.8643   -0.9437   -1.3251 N.am     1 ZINC001570985666   -0.7200
7      C7     -3.1741   -0.9615   -1.6421 C.2      1 ZINC001570985666    0.6000
8      O8     -4.0053   -0.6495   -0.8109 O.2      1 ZINC001570985666   -0.5300
9      C9     -3.5990   -1.3587   -2.9956 C.2      1 ZINC001570985666   -0.2300
10     C10    -2.7776   -1.7413   -4.0340 C.2      1 ZINC001570985666    0.0700
11     N11    -3.5506   -2.0256   -5.1010 N.pl3    1 ZINC001570985666   -0.5200
12     C12    -4.8690   -1.8325   -4.7696 C.2      1 ZINC001570985666    0.0600
13     C13    -6.0261   -2.0383   -5.6693 C.2      1 ZINC001570985666    0.2500
14     N14    -5.9865   -2.4419   -6.9251 N.2      1 ZINC001570985666   -0.3100
15     N15    -7.1985   -2.4954   -7.3600 N.pl3    1 ZINC001570985666   -0.2200
16     N16    -8.0045   -2.1393   -6.4217 N.2      1 ZINC001570985666   -0.0400
17     N17    -7.3203   -1.8565   -5.3656 N.2      1 ZINC001570985666   -0.2600
18     C18    -4.9324   -1.4263   -3.4764 C.2      1 ZINC001570985666   -0.0600
19     C19    -1.3346   -1.7852    0.9519 C.3      1 ZINC001570985666   -0.1500
20     C20    -0.2902   -1.3036    1.9897 C.3      1 ZINC001570985666    0.1000
21     N21     0.6755   -0.5016    1.2105 N.am     1 ZINC001570985666   -0.6200
22     C22     1.9575   -0.2656    1.5530 C.2      1 ZINC001570985666    0.5300
23     O23     2.6627    0.4099    0.8338 O.2      1 ZINC001570985666   -0.5300
24     C24     2.5145   -0.8409    2.8296 C.3      1 ZINC001570985666   -0.1300
25     C25     3.9795   -0.4259    2.9794 C.3      1 ZINC001570985666   -0.1000
26     C26     4.1672    0.9290    3.6822 C.3      1 ZINC001570985666   -0.1300
27     C27     5.3647    0.2963    4.4107 C.3      1 ZINC001570985666   -0.1400
28     C28     4.6794   -1.0628    4.1916 C.3      1 ZINC001570985666   -0.1400
29     H29     1.0039    1.9031    0.0027 H        1 ZINC001570985666    0.0700
30     H30    -0.5459    1.8868   -0.8726 H        1 ZINC001570985666    0.0700
31     H31    -0.5289    1.8773    0.9072 H        1 ZINC001570985666    0.0600
32     H32    -1.2014   -1.1925   -1.9881 H        1 ZINC001570985666    0.4000
33     H33    -1.6999   -1.8022   -3.9991 H        1 ZINC001570985666    0.1800
34     H34    -3.2265   -2.3199   -5.9665 H        1 ZINC001570985666    0.4300
35     H35    -7.4621   -2.7621   -8.2546 H        1 ZINC001570985666    0.4800
36     H36    -5.8281   -1.1922   -2.9202 H        1 ZINC001570985666    0.1600
37     H37    -2.2908   -1.9984    1.4298 H        1 ZINC001570985666    0.0900
38     H38    -0.9701   -2.6552    0.4056 H        1 ZINC001570985666    0.0800
39     H39    -0.7685   -0.6883    2.7517 H        1 ZINC001570985666    0.0800
40     H40     0.2099   -2.1565    2.4484 H        1 ZINC001570985666    0.0800
41     H41     1.9420   -0.4653    3.6776 H        1 ZINC001570985666    0.0900
42     H42     2.4464   -1.9283    2.7981 H        1 ZINC001570985666    0.0900
43     H43     4.5430   -0.5195    2.0510 H        1 ZINC001570985666    0.1000
44     H44     4.4451    1.7371    3.0055 H        1 ZINC001570985666    0.0700
45     H45     3.3437    1.1948    4.3450 H        1 ZINC001570985666    0.0800
46     H46     6.3075    0.4015    3.8739 H        1 ZINC001570985666    0.0800
47     H47     5.4392    0.5837    5.4595 H        1 ZINC001570985666    0.0700
48     H48     3.9959   -1.3415    4.9937 H        1 ZINC001570985666    0.0800
49     H49     5.3707   -1.8626    3.9262 H        1 ZINC001570985666    0.0700
@<TRIPOS>BOND
1     1     2     1
2     1     29    1
3     1     30    1
4     1     31    1
5     2     3     1
6     2     21    1
7     2     4     1
8     4     5     1
9     4     6     1
10    4     19    1
11    6     7     am
12    6     32    1
13    7     8     2
14    7     9     1
15    9     18    1
16    9     10    2
17    10    11    1
18    10    33    1
19    11    12    1
20    11    34    1
21    12    13    1
22    12    18    2
23    13    17    1
24    13    14    2
25    14    15    1
26    15    16    1
27    15    35    1
28    16    17    2
29    18    36    1
30    19    20    1
31    19    37    1
32    19    38    1
33    20    21    1
34    20    39    1
35    20    40    1
36    21    22    am
37    22    23    2
38    22    24    1
39    24    25    1
40    24    41    1
41    24    42    1
42    25    28    1
43    25    26    1
44    25    43    1
45    26    27    1
46    26    44    1
47    26    45    1
48    27    28    1
49    27    46    1
50    27    47    1
51    28    48    1
52    28    49    1
@<TRIPOS>SUBSTRUCTURE
1   ZINC001570985666 1     RESIDUE    1   A     ZIN   1
@<TRIPOS>MOLECULE
ZINC000822449555
45	48	1	0	0
SMALL
USER_CHARGES
@<TRIPOS>ATOM
1      C1      0.0132    1.4881    0.0009 C.3      1 ZINC000822449555   -0.1100
2      C2      0.0304   -0.0189    0.0020 C.ar     1 ZINC000822449555    0.1400
3      N3      0.0457   -0.6717   -1.1443 N.ar     1 ZINC000822449555   -0.5000
4      C4      0.0611   -1.9946   -1.1912 C.ar     1 ZINC000822449555    0.3000
5      N5      0.0769   -2.6394   -2.4250 N.3      1 ZINC000822449555   -0.4700
6      C6      1.2308   -3.5441   -2.5319 C.3      1 ZINC000822449555    0.0200
7      C7      1.1766   -4.2750   -3.8760 C.3      1 ZINC000822449555    0.0600
8      O8      1.1423   -3.3139   -4.9345 O.3      1 ZINC000822449555   -0.3800
9      C9      0.0308   -2.4168   -4.8619 C.3      1 ZINC000822449555    0.0600
10     C10     0.0734   -1.6671   -3.5277 C.3      1 ZINC000822449555    0.0300
11     C11     0.0621   -2.7475   -0.0219 C.ar     1 ZINC000822449555   -0.1700
12     C12     0.0463   -2.0973    1.1985 C.ar     1 ZINC000822449555   -0.0500
13     C13     0.0356   -0.7034    1.2081 C.ar     1 ZINC000822449555    0.0600
14     N14     0.0194   -0.0027    2.4213 N.am     1 ZINC000822449555   -0.6600
15     C15    -0.6422   -0.5067    3.4818 C.2      1 ZINC000822449555    0.5700
16     O16    -1.1594   -1.6048    3.4100 O.2      1 ZINC000822449555   -0.5100
17     C17    -0.7392    0.2750    4.7312 C.ar     1 ZINC000822449555   -0.1800
18     C18    -1.4199   -0.2421    5.8418 C.ar     1 ZINC000822449555   -0.0100
19     C19    -1.4842    0.5255    6.9881 C.ar     1 ZINC000822449555   -0.1300
20     C20    -0.8747    1.7793    7.0027 C.ar     1 ZINC000822449555    0.2300
21     C21    -0.9390    2.6101    8.2298 C.2      1 ZINC000822449555    0.2100
22     N22    -0.4201    3.8110    8.3962 N.2      1 ZINC000822449555   -0.2500
23     N23    -0.6916    4.1949    9.5960 N.pl3    1 ZINC000822449555   -0.2200
24     N24    -1.3656    3.2762   10.1951 N.2      1 ZINC000822449555   -0.0400
25     N25    -1.5411    2.2887    9.3841 N.2      1 ZINC000822449555   -0.2500
26     N26    -0.2371    2.2393    5.9329 N.ar     1 ZINC000822449555   -0.4500
27     C27    -0.1488    1.5374    4.8244 C.ar     1 ZINC000822449555    0.1400
28     H28     1.0367    1.8631    0.0028 H        1 ZINC000822449555    0.0800
29     H29    -0.5028    1.8449   -0.8905 H        1 ZINC000822449555    0.0800
30     H30    -0.5066    1.8462    0.8895 H        1 ZINC000822449555    0.0700
31     H31     2.1531   -2.9667   -2.4685 H        1 ZINC000822449555    0.0600
32     H32     1.1994   -4.2714   -1.7206 H        1 ZINC000822449555    0.1000
33     H33     2.0601   -4.9041   -3.9841 H        1 ZINC000822449555    0.1100
34     H34     0.2806   -4.8944   -3.9176 H        1 ZINC000822449555    0.0600
35     H35     0.0857   -1.7021   -5.6830 H        1 ZINC000822449555    0.1000
36     H36    -0.8984   -2.9822   -4.9321 H        1 ZINC000822449555    0.0600
37     H37    -0.8027   -1.0242   -3.4433 H        1 ZINC000822449555    0.1000
38     H38     0.9773   -1.0597   -3.4803 H        1 ZINC000822449555    0.0600
39     H39     0.0747   -3.8265   -0.0664 H        1 ZINC000822449555    0.1400
40     H40     0.0463   -2.6563    2.1226 H        1 ZINC000822449555    0.1500
41     H41     0.4845    0.8451    2.4979 H        1 ZINC000822449555    0.4100
42     H42    -1.8833   -1.2168    5.8020 H        1 ZINC000822449555    0.1600
43     H43    -2.0008    0.1589    7.8628 H        1 ZINC000822449555    0.1600
44     H44    -0.4293    5.0431    9.9865 H        1 ZINC000822449555    0.4800
45     H45     0.3785    1.9448    3.9745 H        1 ZINC000822449555    0.1700
@<TRIPOS>BOND
1     1     2     1
2     1     28    1
3     1     29    1
4     1     30    1
5     2     13    ar
6     2     3     ar
7     3     4     ar
8     4     5     1
9     4     11    ar
10    5     10    1
11    5     6     1
12    6     7     1
13    6     31    1
14    6     32    1
15    7     8     1
16    7     33    1
17    7     34    1
18    8     9     1
19    9     10    1
20    9     35    1
21    9     36    1
22    10    37    1
23    10    38    1
24    11    12    ar
25    11    39    1
26    12    13    ar
27    12    40    1
28    13    14    1
29    14    15    am
30    14    41    1
31    15    16    2
32    15    17    1
33    17    27    ar
34    17    18    ar
35    18    19    ar
36    18    42    1
37    19    20    ar
38    19    43    1
39    20    21    1
40    20    26    ar
41    21    25    1
42    21    22    2
43    22    23    1
44    23    24    1
45    23    44    1
46    24    25    2
47    26    27    ar
48    27    45    1
@<TRIPOS>SUBSTRUCTURE
1   ZINC000822449555 1     RESIDUE    1   A     ZIN   1
@<TRIPOS>MOLECULE
ZINC001124460178
50	50	1	0	0
SMALL
USER_CHARGES
@<TRIPOS>ATOM
1      C1     -0.0184    1.5028    0.0103 C.3      1 ZINC001124460178   -0.0700
2      C2      0.0021   -0.0041    0.0020 C.2      1 ZINC001124460178    0.3100
3      N3      0.0060   -0.6693   -1.1163 N.2      1 ZINC001124460178   -0.5000
4      S4      0.0302   -2.3109   -0.6770 S.3      1 ZINC001124460178    0.1800
5      C5      0.0338   -1.9995    1.0177 C.2      1 ZINC001124460178    0.3400
6      N6      0.0511   -2.9265    2.0441 N.pl3    1 ZINC001124460178   -0.6600
7      C7      0.0685   -4.3589    1.7373 C.3      1 ZINC001124460178    0.0900
8      C8      0.0855   -5.1595    3.0410 C.3      1 ZINC001124460178    0.0800
9      H9      0.9261   -4.8363    3.6550 H        1 ZINC001124460178    0.1200
10     O10    -1.1351   -4.9398    3.7508 O.3      1 ZINC001124460178   -0.5500
11     C11     0.2294   -6.6491    2.7228 C.3      1 ZINC001124460178    0.0900
12     N12     0.2456   -7.4158    3.9711 N.am     1 ZINC001124460178   -0.6100
13     C13    -1.0091   -7.9100    4.5436 C.3      1 ZINC001124460178    0.0800
14     C14     1.4148   -7.6663    4.5929 C.2      1 ZINC001124460178    0.5100
15     O15     2.4535   -7.2571    4.1190 O.2      1 ZINC001124460178   -0.5400
16     C16     1.4315   -8.4549    5.8770 C.3      1 ZINC001124460178   -0.1400
17     C17     2.8730   -8.5956    6.3704 C.3      1 ZINC001124460178   -0.1100
18     C18     2.8899   -9.3963    7.6741 C.3      1 ZINC001124460178   -0.1200
19     C19     4.3313   -9.5370    8.1674 C.3      1 ZINC001124460178   -0.1200
20     C20     4.3483  -10.3376    9.4711 C.3      1 ZINC001124460178   -0.1000
21     C21     5.7963  -10.5854    9.8986 C.3      1 ZINC001124460178   -0.1500
22     C22     3.6219   -9.5496   10.5630 C.3      1 ZINC001124460178   -0.1500
23     N23     0.0220   -0.6874    1.1228 N.2      1 ZINC001124460178   -0.5800
24     H24     1.0042    1.8801    0.0026 H        1 ZINC001124460178    0.0900
25     H25    -0.5455    1.8639   -0.8728 H        1 ZINC001124460178    0.0900
26     H26    -0.5286    1.8543    0.9071 H        1 ZINC001124460178    0.0900
27     H27     0.0516   -2.6281    2.9671 H        1 ZINC001124460178    0.4200
28     H28    -0.8209   -4.6184    1.1631 H        1 ZINC001124460178    0.0800
29     H29     0.9589   -4.5948    1.1544 H        1 ZINC001124460178    0.0900
30     H30    -1.9269   -5.2052    3.2632 H        1 ZINC001124460178    0.3800
31     H31    -0.6112   -6.9724    2.1088 H        1 ZINC001124460178    0.0900
32     H32     1.1604   -6.8167    2.1814 H        1 ZINC001124460178    0.1000
33     H33    -1.2217   -8.9037    4.1493 H        1 ZINC001124460178    0.0600
34     H34    -0.9180   -7.9614    5.6286 H        1 ZINC001124460178    0.0800
35     H35    -1.8209   -7.2326    4.2788 H        1 ZINC001124460178    0.0800
36     H36     0.8388   -7.9356    6.6301 H        1 ZINC001124460178    0.0900
37     H37     1.0094   -9.4444    5.7013 H        1 ZINC001124460178    0.0900
38     H38     3.4657   -9.1150    5.6173 H        1 ZINC001124460178    0.0700
39     H39     3.2951   -7.6062    6.5461 H        1 ZINC001124460178    0.0700
40     H40     2.2972   -8.8769    8.4271 H        1 ZINC001124460178    0.0600
41     H41     2.4678  -10.3857    7.4983 H        1 ZINC001124460178    0.0600
42     H42     4.9240  -10.0563    7.4144 H        1 ZINC001124460178    0.0600
43     H43     4.7534   -8.5475    8.3432 H        1 ZINC001124460178    0.0600
44     H44     3.8463  -11.2929    9.3174 H        1 ZINC001124460178    0.0700
45     H45     6.2983   -9.6301   10.0523 H        1 ZINC001124460178    0.0500
46     H46     5.8084  -11.1558   10.8274 H        1 ZINC001124460178    0.0500
47     H47     6.3138  -11.1468    9.1208 H        1 ZINC001124460178    0.0500
48     H48     2.5903   -9.3731   10.2584 H        1 ZINC001124460178    0.0600
49     H49     3.6339  -10.1200   11.4918 H        1 ZINC001124460178    0.0500
50     H50     4.1238   -8.5944   10.7167 H        1 ZINC001124460178    0.0500
@<TRIPOS>BOND
1     1     2     1
2     1     24    1
3     1     25    1
4     1     26    1
5     2     23    1
6     2     3     2
7     3     4     1
8     4     5     1
9     5     6     1
10    5     23    2
11    6     7     1
12    6     27    1
13    7     8     1
14    7     28    1
15    7     29    1
16    8     9     1
17    8     10    1
18    8     11    1
19    10    30    1
20    11    12    1
21    11    31    1
22    11    32    1
23    12    13    1
24    12    14    am
25    13    33    1
26    13    34    1
27    13    35    1
28    14    15    2
29    14    16    1
30    16    17    1
31    16    36    1
32    16    37    1
33    17    18    1
34    17    38    1
35    17    39    1
36    18    19    1
37    18    40    1
38    18    41    1
39    19    20    1
40    19    42    1
41    19    43    1
42    20    21    1
43    20    22    1
44    20    44    1
45    21    45    1
46    21    46    1
47    21    47    1
48    22    48    1
49    22    49    1
50    22    50    1
@<TRIPOS>SUBSTRUCTURE
1   ZINC001124460178 1     RESIDUE    1   A     ZIN   1
@<TRIPOS>MOLECULE
ZINC000443933644
48	49	1	0	0
SMALL
USER_CHARGES
@<TRIPOS>ATOM
1      C1     -1.5285   -2.2324   -4.9738 C.3      1 ZINC000443933644   -0.1500
2      C2     -0.0665   -2.6390   -4.7786 C.3      1 ZINC000443933644   -0.1400
3      C3      0.4809   -1.9809   -3.5105 C.3      1 ZINC000443933644   -0.1000
4      H4     -0.1576   -2.2352   -2.6645 H        1 ZINC000443933644    0.1000
5      C5      0.5042   -0.4621   -3.6935 C.3      1 ZINC000443933644   -0.1700
6      C6      1.9013   -2.4847   -3.2469 C.3      1 ZINC000443933644    0.1200
7      H7      1.9051   -3.5747   -3.2413 H        1 ZINC000443933644    0.1300
8      N8      2.3624   -1.9881   -1.9480 N.am     1 ZINC000443933644   -1.1100
9      S9      3.2923   -2.9531   -0.9752 S.o2     1 ZINC000443933644    2.6900
10     O10     4.3529   -3.4382   -1.7872 O.2      1 ZINC000443933644   -0.9400
11     O11     3.5040   -2.2258    0.2270 O.2      1 ZINC000443933644   -0.9400
12     C12     2.3153   -4.3545   -0.5435 C.ar     1 ZINC000443933644   -0.7000
13     C13     1.1567   -4.1910    0.2344 C.ar     1 ZINC000443933644    0.0500
14     C14     0.7530   -2.9209    0.6816 C.ar     1 ZINC000443933644   -0.1400
15     C15    -0.3750   -2.7985    1.4332 C.ar     1 ZINC000443933644   -0.0800
16     C16    -1.1386   -3.9152    1.7677 C.ar     1 ZINC000443933644   -0.1200
17     C17    -0.7776   -5.1606    1.3523 C.ar     1 ZINC000443933644   -0.0900
18     C18     0.3796   -5.3256    0.5750 C.ar     1 ZINC000443933644   -0.0900
19     C19     0.7848   -6.6006    0.1265 C.ar     1 ZINC000443933644    0.2300
20     N20     0.0345   -7.7325    0.4506 N.am     1 ZINC000443933644   -0.6700
21     C21     0.6461   -8.9222    0.6147 C.2      1 ZINC000443933644    0.5100
22     C22    -0.1740  -10.1667    0.8377 C.3      1 ZINC000443933644   -0.1700
23     O23     1.8566   -8.9912    0.5829 O.2      1 ZINC000443933644   -0.5100
24     C24     1.9277   -6.7185   -0.6346 C.ar     1 ZINC000443933644   -0.1600
25     C25     2.6794   -5.5959   -0.9682 C.ar     1 ZINC000443933644    0.0400
26     C26     2.8350   -1.9771   -4.3476 C.3      1 ZINC000443933644    0.4300
27     F27     2.9021   -0.5807   -4.2950 F        1 ZINC000443933644   -0.1700
28     F28     4.1134   -2.5129   -4.1585 F        1 ZINC000443933644   -0.1600
29     F29     2.3431   -2.3736   -5.5958 F        1 ZINC000443933644   -0.1700
30     H30    -2.1140   -2.5576   -4.1139 H        1 ZINC000443933644    0.0500
31     H31    -1.5945   -1.1486   -5.0694 H        1 ZINC000443933644    0.0600
32     H32    -1.9185   -2.7012   -5.8773 H        1 ZINC000443933644    0.0600
33     H33    -0.0005   -3.7228   -4.6830 H        1 ZINC000443933644    0.0700
34     H34     0.5190   -2.3138   -5.6385 H        1 ZINC000443933644    0.0900
35     H35    -0.5175   -0.0889   -3.7645 H        1 ZINC000443933644    0.0700
36     H36     1.0010   -0.0008   -2.8399 H        1 ZINC000443933644    0.0600
37     H37     1.0457   -0.2144   -4.6064 H        1 ZINC000443933644    0.0700
38     H38     2.1230   -1.0940   -1.6578 H        1 ZINC000443933644    0.4300
39     H39     1.3353   -2.0466    0.4304 H        1 ZINC000443933644    0.1400
40     H40    -0.6827   -1.8216    1.7758 H        1 ZINC000443933644    0.1300
41     H41    -2.0295   -3.7910    2.3653 H        1 ZINC000443933644    0.1300
42     H42    -1.3785   -6.0172    1.6196 H        1 ZINC000443933644    0.1300
43     H43    -0.9271   -7.6626    0.5575 H        1 ZINC000443933644    0.4200
44     H44    -1.2331   -9.9092    0.8347 H        1 ZINC000443933644    0.0800
45     H45     0.0282  -10.8826    0.0410 H        1 ZINC000443933644    0.1000
46     H46     0.0899  -10.6083    1.7986 H        1 ZINC000443933644    0.1000
47     H47     2.2411   -7.6927   -0.9797 H        1 ZINC000443933644    0.1500
48     H48     3.5715   -5.7124   -1.5657 H        1 ZINC000443933644    0.1500
@<TRIPOS>BOND
1     1     2     1
2     1     30    1
3     1     31    1
4     1     32    1
5     2     3     1
6     2     33    1
7     2     34    1
8     3     4     1
9     3     5     1
10    3     6     1
11    5     35    1
12    5     36    1
13    5     37    1
14    6     7     1
15    6     8     1
16    6     26    1
17    8     9     am
18    8     38    1
19    9     10    2
20    9     11    2
21    9     12    1
22    12    25    ar
23    12    13    ar
24    13    18    ar
25    13    14    ar
26    14    15    ar
27    14    39    1
28    15    16    ar
29    15    40    1
30    16    17    ar
31    16    41    1
32    17    18    ar
33    17    42    1
34    18    19    ar
35    19    20    1
36    19    24    ar
37    20    21    am
38    20    43    1
39    21    22    1
40    21    23    2
41    22    44    1
42    22    45    1
43    22    46    1
44    24    25    ar
45    24    47    1
46    25    48    1
47    26    27    1
48    26    28    1
49    26    29    1
@<TRIPOS>SUBSTRUCTURE
1   ZINC000443933644 1     RESIDUE    1   A     ZIN   1
@<TRIPOS>MOLECULE
ZINC000762187039
47	49	1	0	0
SMALL
USER_CHARGES
@<TRIPOS>ATOM
1      C1     -0.0184    1.5028    0.0103 C.3      1 ZINC000762187039   -0.0800
2      C2      0.0021   -0.0041    0.0020 C.2      1 ZINC000762187039    0.0500
3      N3     -1.0458   -0.7569    0.0028 N.2      1 ZINC000762187039   -0.4700
4      C4     -0.8495   -2.0600   -0.0059 C.2      1 ZINC000762187039    0.0700
5      C5     -1.9813   -3.0549   -0.0066 C.3      1 ZINC000762187039   -0.0300
6      C6     -2.9047   -2.7778    1.1814 C.3      1 ZINC000762187039   -0.1300
7      C7     -4.0366   -3.7728    1.1807 C.2      1 ZINC000762187039    0.5200
8      O8     -4.0985   -4.6201    0.3152 O.2      1 ZINC000762187039   -0.5400
9      N9     -4.9800   -3.7209    2.1418 N.am     1 ZINC000762187039   -0.7300
10     C10    -6.0802   -4.6882    2.1412 C.3      1 ZINC000762187039    0.1200
11     C11    -7.0037   -4.4110    3.3292 C.3      1 ZINC000762187039   -0.1300
12     C12    -8.1528   -5.4212    3.3285 C.3      1 ZINC000762187039    0.0600
13     O13    -9.0153   -5.1623    4.4381 O.3      1 ZINC000762187039   -0.3100
14     C14   -10.0937   -5.9760    4.5841 C.ar     1 ZINC000762187039    0.1300
15     C15   -10.3062   -7.0109    3.6685 C.ar     1 ZINC000762187039   -0.1900
16     C16   -11.3764   -7.8418    3.7882 C.ar     1 ZINC000762187039   -0.0600
17     C17   -12.2840   -7.6613    4.8462 C.ar     1 ZINC000762187039   -0.0800
18     C18   -13.3999   -8.5015    5.0001 C.ar     1 ZINC000762187039   -0.0900
19     C19   -14.2583   -8.2984    6.0365 C.ar     1 ZINC000762187039   -0.1300
20     C20   -14.0485   -7.2676    6.9509 C.ar     1 ZINC000762187039   -0.1000
21     C21   -12.9792   -6.4341    6.8339 C.ar     1 ZINC000762187039   -0.1200
22     C22   -12.0704   -6.6128    5.7762 C.ar     1 ZINC000762187039   -0.0100
23     C23   -10.9531   -5.7756    5.6269 C.ar     1 ZINC000762187039   -0.1500
24     C24     0.4356   -2.4268   -0.0146 C.2      1 ZINC000762187039   -0.2600
25     S25     1.4171   -0.9635   -0.0172 S.3      1 ZINC000762187039    0.1200
26     H26     1.0042    1.8801    0.0026 H        1 ZINC000762187039    0.0800
27     H27    -0.5455    1.8639   -0.8728 H        1 ZINC000762187039    0.0900
28     H28    -0.5286    1.8543    0.9071 H        1 ZINC000762187039    0.0900
29     H29    -2.5456   -2.9628   -0.9346 H        1 ZINC000762187039    0.0900
30     H30    -1.5778   -4.0643    0.0746 H        1 ZINC000762187039    0.0900
31     H31    -2.3405   -2.8700    2.1094 H        1 ZINC000762187039    0.0900
32     H32    -3.3082   -1.7685    1.1002 H        1 ZINC000762187039    0.1000
33     H33    -4.9304   -3.0432    2.8340 H        1 ZINC000762187039    0.4000
34     H34    -6.6445   -4.5960    1.2132 H        1 ZINC000762187039    0.0700
35     H35    -5.6768   -5.6975    2.2224 H        1 ZINC000762187039    0.0700
36     H36    -6.4394   -4.5032    4.2572 H        1 ZINC000762187039    0.0800
37     H37    -7.4072   -3.4017    3.2480 H        1 ZINC000762187039    0.0800
38     H38    -8.7170   -5.3290    2.4005 H        1 ZINC000762187039    0.0700
39     H39    -7.7493   -6.4305    3.4097 H        1 ZINC000762187039    0.0700
40     H40    -9.6108   -7.1525    2.8543 H        1 ZINC000762187039    0.1300
41     H41   -11.5284   -8.6367    3.0731 H        1 ZINC000762187039    0.1300
42     H42   -13.5756   -9.3043    4.2993 H        1 ZINC000762187039    0.1300
43     H43   -15.1152   -8.9456    6.1520 H        1 ZINC000762187039    0.1200
44     H44   -14.7453   -7.1280    7.7642 H        1 ZINC000762187039    0.1200
45     H45   -12.8293   -5.6396    7.5499 H        1 ZINC000762187039    0.1300
46     H46   -10.7761   -4.9755    6.3304 H        1 ZINC000762187039    0.1300
47     H47     0.8068   -3.4409   -0.0225 H        1 ZINC000762187039    0.1800
@<TRIPOS>BOND
1     1     2     1
2     1     26    1
3     1     27    1
4     1     28    1
5     2     25    1
6     2     3     2
7     3     4     1
8     4     5     1
9     4     24    2
10    5     6     1
11    5     29    1
12    5     30    1
13    6     7     1
14    6     31    1
15    6     32    1
16    7     8     2
17    7     9     am
18    9     10    1
19    9     33    1
20    10    11    1
21    10    34    1
22    10    35    1
23    11    12    1
24    11    36    1
25    11    37    1
26    12    13    1
27    12    38    1
28    12    39    1
29    13    14    1
30    14    23    ar
31    14    15    ar
32    15    16    ar
33    15    40    1
34    16    17    ar
35    16    41    1
36    17    22    ar
37    17    18    ar
38    18    19    ar
39    18    42    1
40    19    20    ar
41    19    43    1
42    20    21    ar
43    20    44    1
44    21    22    ar
45    21    45    1
46    22    23    ar
47    23    46    1
48    24    25    1
49    24    47    1
@<TRIPOS>SUBSTRUCTURE
1   ZINC000762187039 1     RESIDUE    1   A     ZIN   1
@<TRIPOS>MOLECULE
ZINC001220171460
43	44	1	0	0
SMALL
USER_CHARGES
@<TRIPOS>ATOM
1      C1      1.6661    1.0461    0.6481 C.3      1 ZINC001220171460    0.0200
2      O2      1.1234   -0.2571    0.4265 O.3      1 ZINC001220171460   -0.3100
3      C3      1.1613   -0.7334   -0.8471 C.ar     1 ZINC001220171460    0.1000
4      C4      1.7136    0.0344   -1.8585 C.ar     1 ZINC001220171460   -0.1500
5      C5      1.7519   -0.4507   -3.1540 C.ar     1 ZINC001220171460   -0.0600
6      Cl6     2.4454    0.5136   -4.4201 Cl       1 ZINC001220171460   -0.0400
7      C7      1.2382   -1.7044   -3.4424 C.ar     1 ZINC001220171460    0.1000
8      F8      1.2778   -2.1746   -4.7083 F        1 ZINC001220171460   -0.1200
9      C9      0.6849   -2.4763   -2.4355 C.ar     1 ZINC001220171460   -0.1200
10     C10     0.6496   -1.9967   -1.1348 C.ar     1 ZINC001220171460    0.1800
11     N11     0.0896   -2.7770   -0.1134 N.am     1 ZINC001220171460   -0.6700
12     C12     0.0442   -4.1182   -0.2379 C.2      1 ZINC001220171460    0.7100
13     O13     0.5794   -4.6592   -1.1862 O.2      1 ZINC001220171460   -0.5700
14     N14    -0.5944   -4.8598    0.6888 N.am     1 ZINC001220171460   -0.7400
15     C15    -0.6437   -6.3177    0.5535 C.3      1 ZINC001220171460    0.1400
16     C16    -1.4220   -6.9129    1.7286 C.3      1 ZINC001220171460   -0.1400
17     C17    -1.4735   -8.4355    1.5873 C.3      1 ZINC001220171460    0.0500
18     H18    -1.8892   -8.6962    0.6140 H        1 ZINC001220171460    0.1000
19     N19    -0.1157   -8.9842    1.7027 N.3      1 ZINC001220171460   -0.6500
20     C20    -0.0104  -10.2778    1.0146 C.3      1 ZINC001220171460    0.0100
21     C21     1.2307  -10.5210    0.1535 C.3      1 ZINC001220171460   -0.2000
22     C22     1.0741  -11.2457    1.4919 C.3      1 ZINC001220171460   -0.1600
23     C23    -2.3557   -9.0207    2.6919 C.3      1 ZINC001220171460    0.4600
24     F24    -3.6487   -8.4982    2.5820 F        1 ZINC001220171460   -0.1800
25     F25    -2.4028  -10.4129    2.5627 F        1 ZINC001220171460   -0.1800
26     F26    -1.8221   -8.6861    3.9412 F        1 ZINC001220171460   -0.1700
27     H27     2.7182    1.0548    0.3633 H        1 ZINC001220171460    0.0600
28     H28     1.1210    1.7738    0.0469 H        1 ZINC001220171460    0.0600
29     H29     1.5731    1.3039    1.7031 H        1 ZINC001220171460    0.1100
30     H30     2.1144    1.0124   -1.6363 H        1 ZINC001220171460    0.1500
31     H31     0.2846   -3.4535   -2.6619 H        1 ZINC001220171460    0.1800
32     H32    -0.2652   -2.3515    0.6829 H        1 ZINC001220171460    0.4200
33     H33    -1.0213   -4.4282    1.4454 H        1 ZINC001220171460    0.4000
34     H34    -1.1402   -6.5793   -0.3809 H        1 ZINC001220171460    0.0800
35     H35     0.3706   -6.7168    0.5501 H        1 ZINC001220171460    0.0700
36     H36    -0.9255   -6.6514    2.6630 H        1 ZINC001220171460    0.1000
37     H37    -2.4363   -6.5138    1.7320 H        1 ZINC001220171460    0.1000
38     H38     0.5691   -8.3314    1.3521 H        1 ZINC001220171460    0.3600
39     H39    -0.9525  -10.7065    0.6726 H        1 ZINC001220171460    0.1200
40     H40     1.1053  -11.1097   -0.7552 H        1 ZINC001220171460    0.1000
41     H41     1.9691   -9.7211    0.0977 H        1 ZINC001220171460    0.1000
42     H42     1.7095  -10.9226    2.3165 H        1 ZINC001220171460    0.1000
43     H43     0.8457  -12.3111    1.4636 H        1 ZINC001220171460    0.1000
@<TRIPOS>BOND
1     1     2     1
2     1     27    1
3     1     28    1
4     1     29    1
5     2     3     1
6     3     10    ar
7     3     4     ar
8     4     5     ar
9     4     30    1
10    5     6     1
11    5     7     ar
12    7     8     1
13    7     9     ar
14    9     10    ar
15    9     31    1
16    10    11    1
17    11    12    am
18    11    32    1
19    12    13    2
20    12    14    am
21    14    15    1
22    14    33    1
23    15    16    1
24    15    34    1
25    15    35    1
26    16    17    1
27    16    36    1
28    16    37    1
29    17    18    1
30    17    19    1
31    17    23    1
32    19    20    1
33    19    38    1
34    20    22    1
35    20    21    1
36    20    39    1
37    21    22    1
38    21    40    1
39    21    41    1
40    22    42    1
41    22    43    1
42    23    24    1
43    23    25    1
44    23    26    1
@<TRIPOS>SUBSTRUCTURE
1   ZINC001220171460 1     RESIDUE    1   A     ZIN   1
@<TRIPOS>MOLECULE
ZINC000906038034
35	36	1	0	0
SMALL
USER_CHARGES
@<TRIPOS>ATOM
1      C1     -0.0178    1.4608    0.0101 C.3      1 ZINC000906038034    0.1000
2      N2      0.0021   -0.0041    0.0020 N.pl3    1 ZINC000906038034   -0.3700
3      C3      0.0078   -0.7903   -1.0963 C.2      1 ZINC000906038034    0.0600
4      C4      0.0271   -2.0774   -0.6887 C.2      1 ZINC000906038034   -0.2500
5      C5      0.0336   -2.0840    0.7215 C.2      1 ZINC000906038034    0.1200
6      C6      0.0538   -3.2835    1.5864 C.2      1 ZINC000906038034    0.1500
7      N7      0.0544   -3.2763    2.8886 N.2      1 ZINC000906038034   -0.4300
8      C8      0.0735   -4.4431    3.4920 C.2      1 ZINC000906038034    0.0600
9      C9      0.0758   -4.5674    4.9938 C.3      1 ZINC000906038034   -0.5300
10     S10    -1.6333   -4.6443    5.5968 S.o2     1 ZINC000906038034    2.4200
11     O11    -2.2661   -3.4016    5.3239 O.2      1 ZINC000906038034   -0.9100
12     O12    -2.2274   -5.8445    5.1217 O.2      1 ZINC000906038034   -0.9200
13     C13    -1.3923   -4.7889    7.3889 C.3      1 ZINC000906038034   -0.6100
14     C14    -2.7540   -4.8678    8.0820 C.3      1 ZINC000906038034   -0.4500
15     S15    -2.5129   -5.0123    9.8741 S.o      1 ZINC000906038034    1.3300
16     O16    -1.8410   -6.2302   10.1649 O.2      1 ZINC000906038034   -0.7600
17     C17    -4.2103   -5.0918   10.5090 C.3      1 ZINC000906038034    0.1200
18     F18    -4.8611   -6.2032    9.9627 F        1 ZINC000906038034   -0.1900
19     F19    -4.1818   -5.2067   11.9030 F        1 ZINC000906038034   -0.1700
20     F20    -4.8971   -3.9267   10.1511 F        1 ZINC000906038034   -0.1600
21     C21     0.0903   -5.5131    2.6912 C.2      1 ZINC000906038034   -0.2300
22     S22     0.0733   -4.9518    1.0205 S.3      1 ZINC000906038034    0.1600
23     N23     0.0245   -0.8316    1.1319 N.2      1 ZINC000906038034   -0.2400
24     H24     1.0048    1.8381    0.0023 H        1 ZINC000906038034    0.0800
25     H25    -0.5450    1.8219   -0.8730 H        1 ZINC000906038034    0.0900
26     H26    -0.5280    1.8123    0.9069 H        1 ZINC000906038034    0.0900
27     H27    -0.0018   -0.4492   -2.1210 H        1 ZINC000906038034    0.1800
28     H28     0.0355   -2.9472   -1.3288 H        1 ZINC000906038034    0.1600
29     H29     0.6042   -5.4760    5.2824 H        1 ZINC000906038034    0.1500
30     H30     0.5761   -3.7024    5.4292 H        1 ZINC000906038034    0.1600
31     H31    -0.8207   -5.6910    7.6071 H        1 ZINC000906038034    0.1500
32     H32    -0.8488   -3.9174    7.7539 H        1 ZINC000906038034    0.1500
33     H33    -3.3255   -3.9657    7.8638 H        1 ZINC000906038034    0.1600
34     H34    -3.2975   -5.7393    7.7170 H        1 ZINC000906038034    0.1300
35     H35     0.1071   -6.5441    3.0125 H        1 ZINC000906038034    0.1900
@<TRIPOS>BOND
1     1     2     1
2     1     24    1
3     1     25    1
4     1     26    1
5     2     23    1
6     2     3     1
7     3     4     2
8     3     27    1
9     4     5     1
10    4     28    1
11    5     6     1
12    5     23    2
13    6     22    1
14    6     7     2
15    7     8     1
16    8     9     1
17    8     21    2
18    9     10    1
19    9     29    1
20    9     30    1
21    10    11    2
22    10    12    2
23    10    13    1
24    13    14    1
25    13    31    1
26    13    32    1
27    14    15    1
28    14    33    1
29    14    34    1
30    15    16    2
31    15    17    1
32    17    18    1
33    17    19    1
34    17    20    1
35    21    22    1
36    21    35    1
@<TRIPOS>SUBSTRUCTURE
1   ZINC000906038034 1     RESIDUE    1   A     ZIN   1
@<TRIPOS>MOLECULE
ZINC000462219577
61	64	1	0	0
SMALL
USER_CHARGES
@<TRIPOS>ATOM
1      C1     -0.0644    1.4961    0.2152 C.3      1 ZINC000462219577   -0.0700
2      C2     -0.0143   -0.0051    0.0923 C.2      1 ZINC000462219577    0.0800
3      N3      0.1744   -0.6782   -1.0141 N.2      1 ZINC000462219577   -0.2900
4      N4      0.1534   -2.0443   -0.7047 N.pl3    1 ZINC000462219577   -0.3200
5      C5      0.3190   -3.0987   -1.6135 C.ar     1 ZINC000462219577    0.1500
6      C6     -0.3297   -3.0677   -2.8406 C.ar     1 ZINC000462219577   -0.1100
7      C7     -0.1646   -4.1081   -3.7339 C.ar     1 ZINC000462219577   -0.1000
8      C8      0.6455   -5.1801   -3.4069 C.ar     1 ZINC000462219577   -0.1200
9      C9      1.2925   -5.2140   -2.1853 C.ar     1 ZINC000462219577   -0.1000
10     C10     1.1365   -4.1734   -1.2906 C.ar     1 ZINC000462219577   -0.1300
11     C11    -0.0545   -2.1657    0.6260 C.2      1 ZINC000462219577    0.0900
12     C12    -0.1498   -3.4573    1.3964 C.3      1 ZINC000462219577   -0.0800
13     C13    -1.6209   -3.8416    1.5676 C.3      1 ZINC000462219577    0.1700
14     H14    -2.1600   -3.0168    2.0335 H        1 ZINC000462219577    0.1000
15     C15    -1.7235   -5.0839    2.4549 C.3      1 ZINC000462219577   -0.1600
16     N16    -2.2064   -4.1288    0.2558 N.am     1 ZINC000462219577   -0.7400
17     C17    -3.5342   -3.9955    0.0667 C.2      1 ZINC000462219577    0.7100
18     O18    -4.2460   -3.6370    0.9849 O.2      1 ZINC000462219577   -0.5800
19     N19    -4.0729   -4.2597   -1.1402 N.am     1 ZINC000462219577   -0.7400
20     C20    -5.5161   -4.1149   -1.3457 C.3      1 ZINC000462219577    0.1600
21     H21    -6.0445   -4.4024   -0.4367 H        1 ZINC000462219577    0.1000
22     C22    -5.8413   -2.6577   -1.6882 C.3      1 ZINC000462219577   -0.1700
23     C23    -5.1565   -2.2865   -3.0062 C.3      1 ZINC000462219577    0.0700
24     O24    -5.5910   -3.1782   -4.0348 O.3      1 ZINC000462219577   -0.3700
25     C25    -5.2718   -4.5497   -3.7912 C.3      1 ZINC000462219577    0.1400
26     H26    -4.1925   -4.6584   -3.6845 H        1 ZINC000462219577    0.0600
27     C27    -5.7496   -5.3899   -4.9475 C.ar     1 ZINC000462219577   -0.0900
28     C28    -6.9136   -5.0526   -5.6125 C.ar     1 ZINC000462219577   -0.0900
29     C29    -7.3518   -5.8233   -6.6731 C.ar     1 ZINC000462219577   -0.1200
30     C30    -6.6259   -6.9311   -7.0689 C.ar     1 ZINC000462219577   -0.1200
31     C31    -5.4614   -7.2679   -6.4044 C.ar     1 ZINC000462219577   -0.1200
32     C32    -5.0209   -6.4947   -5.3466 C.ar     1 ZINC000462219577   -0.1100
33     C33    -5.9616   -5.0136   -2.5034 C.3      1 ZINC000462219577   -0.1500
34     C34    -0.1554   -0.9190    1.1423 C.2      1 ZINC000462219577   -0.2600
35     H35     0.9392    1.8792    0.3998 H        1 ZINC000462219577    0.0800
36     H36    -0.4522    1.9236   -0.7095 H        1 ZINC000462219577    0.0700
37     H37    -0.7165    1.7712    1.0441 H        1 ZINC000462219577    0.0800
38     H38    -0.9630   -2.2311   -3.0963 H        1 ZINC000462219577    0.1300
39     H39    -0.6689   -4.0846   -4.6886 H        1 ZINC000462219577    0.1300
40     H40     0.7727   -5.9926   -4.1069 H        1 ZINC000462219577    0.1300
41     H41     1.9239   -6.0528   -1.9324 H        1 ZINC000462219577    0.1300
42     H42     1.6422   -4.2004   -0.3366 H        1 ZINC000462219577    0.1300
43     H43     0.3704   -4.2449    0.8513 H        1 ZINC000462219577    0.0900
44     H44     0.3089   -3.3302    2.3770 H        1 ZINC000462219577    0.1100
45     H45    -1.1843   -5.9087    1.9890 H        1 ZINC000462219577    0.0600
46     H46    -1.2879   -4.8702    3.4309 H        1 ZINC000462219577    0.0700
47     H47    -2.7715   -5.3577    2.5768 H        1 ZINC000462219577    0.0700
48     H48    -1.6385   -4.4148   -0.4767 H        1 ZINC000462219577    0.3900
49     H49    -3.5049   -4.5457   -1.8727 H        1 ZINC000462219577    0.3900
50     H50    -6.9199   -2.5400   -1.7923 H        1 ZINC000462219577    0.0800
51     H51    -5.4779   -2.0068   -0.8930 H        1 ZINC000462219577    0.0800
52     H52    -5.4192   -1.2638   -3.2768 H        1 ZINC000462219577    0.1000
53     H53    -4.0757   -2.3655   -2.8892 H        1 ZINC000462219577    0.0500
54     H54    -7.4807   -4.1871   -5.3033 H        1 ZINC000462219577    0.1300
55     H55    -8.2615   -5.5601   -7.1923 H        1 ZINC000462219577    0.1200
56     H56    -6.9686   -7.5336   -7.8971 H        1 ZINC000462219577    0.1200
57     H57    -4.8945   -8.1336   -6.7135 H        1 ZINC000462219577    0.1200
58     H58    -4.1112   -6.7579   -4.8274 H        1 ZINC000462219577    0.1200
59     H59    -5.6835   -6.0463   -2.2929 H        1 ZINC000462219577    0.0800
60     H60    -7.0427   -4.9437   -2.6237 H        1 ZINC000462219577    0.0900
61     H61    -0.3226   -0.6730    2.1806 H        1 ZINC000462219577    0.1500
@<TRIPOS>BOND
1     1     2     1
2     1     35    1
3     1     36    1
4     1     37    1
5     2     34    1
6     2     3     2
7     3     4     1
8     4     5     1
9     4     11    1
10    5     10    ar
11    5     6     ar
12    6     7     ar
13    6     38    1
14    7     8     ar
15    7     39    1
16    8     9     ar
17    8     40    1
18    9     10    ar
19    9     41    1
20    10    42    1
21    11    12    1
22    11    34    2
23    12    13    1
24    12    43    1
25    12    44    1
26    13    14    1
27    13    15    1
28    13    16    1
29    15    45    1
30    15    46    1
31    15    47    1
32    16    17    am
33    16    48    1
34    17    18    2
35    17    19    am
36    19    20    1
37    19    49    1
38    20    21    1
39    20    33    1
40    20    22    1
41    22    23    1
42    22    50    1
43    22    51    1
44    23    24    1
45    23    52    1
46    23    53    1
47    24    25    1
48    25    26    1
49    25    27    1
50    25    33    1
51    27    32    ar
52    27    28    ar
53    28    29    ar
54    28    54    1
55    29    30    ar
56    29    55    1
57    30    31    ar
58    30    56    1
59    31    32    ar
60    31    57    1
61    32    58    1
62    33    59    1
63    33    60    1
64    34    61    1
@<TRIPOS>SUBSTRUCTURE
1   ZINC000462219577 1     RESIDUE    1   A     ZIN   1
@<TRIPOS>MOLECULE
ZINC000763800048
39	40	1	0	0
SMALL
USER_CHARGES
@<TRIPOS>ATOM
1      C1     -0.6025    1.8916    0.2881 C.3      1 ZINC000763800048    0.0400
2      O2     -0.4029    0.4583    0.1688 O.3      1 ZINC000763800048   -0.3600
3      C3     -1.5030   -0.3105    0.1479 C.2      1 ZINC000763800048    0.4600
4      O4     -2.5965    0.1973    0.2268 O.2      1 ZINC000763800048   -0.4900
5      C5     -1.3741   -1.8070    0.0262 C.3      1 ZINC000763800048   -0.0700
6      C6     -2.7459   -2.4310    0.0264 C.ar     1 ZINC000763800048   -0.0600
7      C7     -3.3342   -2.8050    1.2205 C.ar     1 ZINC000763800048   -0.1200
8      C8     -4.5930   -3.3780    1.2251 C.ar     1 ZINC000763800048   -0.1000
9      C9     -5.2667   -3.5779    0.0364 C.ar     1 ZINC000763800048   -0.1100
10     C10    -4.6786   -3.2028   -1.1650 C.ar     1 ZINC000763800048    0.1500
11     N11    -5.3580   -3.4037   -2.3704 N.am     1 ZINC000763800048   -0.6700
12     C12    -6.7014   -3.3042   -2.4115 C.2      1 ZINC000763800048    0.5500
13     O13    -7.3156   -2.9458   -1.4237 O.2      1 ZINC000763800048   -0.5200
14     C14    -7.4217   -3.6270   -3.6438 C.2      1 ZINC000763800048   -0.2100
15     C15    -8.7661   -3.5274   -3.6849 C.2      1 ZINC000763800048   -0.0100
16     C16    -9.4904   -3.8521   -4.9240 C.ar     1 ZINC000763800048   -0.0800
17     C17    -8.7884   -4.2697   -6.0594 C.ar     1 ZINC000763800048   -0.0900
18     C18    -9.4734   -4.5721   -7.2166 C.ar     1 ZINC000763800048   -0.1100
19     C19   -10.8540   -4.4627   -7.2570 C.ar     1 ZINC000763800048   -0.0200
20     Cl20  -11.7083   -4.8451   -8.7190 Cl       1 ZINC000763800048   -0.0600
21     C21   -11.5560   -4.0500   -6.1361 C.ar     1 ZINC000763800048   -0.1100
22     C22   -10.8846   -3.7499   -4.9703 C.ar     1 ZINC000763800048   -0.0800
23     C23    -3.4165   -2.6233   -1.1657 C.ar     1 ZINC000763800048   -0.1300
24     H24     0.3648    2.3940    0.2928 H        1 ZINC000763800048    0.1000
25     H25    -1.1927    2.2478   -0.5562 H        1 ZINC000763800048    0.0600
26     H26    -1.1293    2.1090    1.2172 H        1 ZINC000763800048    0.0600
27     H27    -0.8632   -2.0532   -0.9046 H        1 ZINC000763800048    0.1200
28     H28    -0.7998   -2.1920    0.8688 H        1 ZINC000763800048    0.1200
29     H29    -2.8095   -2.6498    2.1515 H        1 ZINC000763800048    0.1200
30     H30    -5.0495   -3.6697    2.1594 H        1 ZINC000763800048    0.1300
31     H31    -6.2495   -4.0256    0.0407 H        1 ZINC000763800048    0.1400
32     H32    -4.8624   -3.6148   -3.1771 H        1 ZINC000763800048    0.4100
33     H33    -6.8768   -3.9450   -4.5203 H        1 ZINC000763800048    0.1300
34     H34    -9.3111   -3.2094   -2.8084 H        1 ZINC000763800048    0.1400
35     H35    -7.7121   -4.3548   -6.0295 H        1 ZINC000763800048    0.1400
36     H36    -8.9326   -4.8948   -8.0940 H        1 ZINC000763800048    0.1400
37     H37   -12.6321   -3.9670   -6.1748 H        1 ZINC000763800048    0.1400
38     H38   -11.4331   -3.4286   -4.0972 H        1 ZINC000763800048    0.1400
39     H39    -2.9567   -2.3302   -2.0980 H        1 ZINC000763800048    0.1300
@<TRIPOS>BOND
1     1     2     1
2     1     24    1
3     1     25    1
4     1     26    1
5     2     3     1
6     3     4     2
7     3     5     1
8     5     6     1
9     5     27    1
10    5     28    1
11    6     23    ar
12    6     7     ar
13    7     8     ar
14    7     29    1
15    8     9     ar
16    8     30    1
17    9     10    ar
18    9     31    1
19    10    11    1
20    10    23    ar
21    11    12    am
22    11    32    1
23    12    13    2
24    12    14    1
25    14    15    2
26    14    33    1
27    15    16    1
28    15    34    1
29    16    22    ar
30    16    17    ar
31    17    18    ar
32    17    35    1
33    18    19    ar
34    18    36    1
35    19    20    1
36    19    21    ar
37    21    22    ar
38    21    37    1
39    22    38    1
40    23    39    1
@<TRIPOS>SUBSTRUCTURE
1   ZINC000763800048 1     RESIDUE    1   A     ZIN   1
@<TRIPOS>MOLECULE
ZINC001345266033
56	61	1	0	0
SMALL
USER_CHARGES
@<TRIPOS>ATOM
1      C1      0.2904   -0.5772   -2.4128 C.ar     1 ZINC001345266033   -0.1100
2      C2      1.3978    0.2473   -2.5943 C.ar     1 ZINC001345266033   -0.0900
3      C3      2.4978    0.1310   -1.7952 C.ar     1 ZINC001345266033   -0.1100
4      C4      2.5108   -0.8293   -0.7809 C.ar     1 ZINC001345266033    0.0000
5      C5      1.3846   -1.6711   -0.5920 C.ar     1 ZINC001345266033   -0.1100
6      C6      0.2706   -1.5238   -1.4329 C.ar     1 ZINC001345266033   -0.0900
7      C7      1.4240   -2.6276    0.4354 C.ar     1 ZINC001345266033    0.1700
8      N8      2.4777   -2.7442    1.2070 N.ar     1 ZINC001345266033   -0.4800
9      C9      3.5608   -1.9945    1.0882 C.ar     1 ZINC001345266033    0.0900
10     C10     3.6540   -1.0099    0.1131 C.ar     1 ZINC001345266033   -0.0700
11     C11     4.8638   -0.1757   -0.0164 C.2      1 ZINC001345266033    0.2300
12     N12     4.9900    0.9096   -0.7464 N.2      1 ZINC001345266033   -0.2600
13     N13     6.1784    1.3833   -0.6247 N.2      1 ZINC001345266033   -0.3000
14     C14     6.8835    0.6305    0.1896 C.2      1 ZINC001345266033    0.3600
15     N15     8.2021    0.8316    0.5575 N.3      1 ZINC001345266033   -0.4600
16     C16     9.1184    0.2408   -0.4254 C.3      1 ZINC001345266033    0.0600
17     C17    10.5514    0.2805    0.1091 C.3      1 ZINC001345266033   -0.1100
18     C18    10.9727    1.7405    0.3144 C.3      1 ZINC001345266033   -0.0800
19     C19     9.9349    2.4249    1.2104 C.3      1 ZINC001345266033   -0.1300
20     C20    10.2082    2.4636    2.7131 C.3      1 ZINC001345266033   -0.1600
21     C21    10.3287    3.7409    1.8788 C.3      1 ZINC001345266033   -0.1700
22     C22     8.4824    2.2618    0.7531 C.3      1 ZINC001345266033    0.1100
23     N23     6.0720   -0.3834    0.6093 N.pl3    1 ZINC001345266033   -0.4600
24     C24     6.4176   -1.4711    1.5279 C.3      1 ZINC001345266033    0.1000
25     C25     6.2799   -0.9826    2.9713 C.3      1 ZINC001345266033   -0.1400
26     H26     7.0001   -0.1903    3.1753 H        1 ZINC001345266033    0.1000
27     C27     6.4717   -2.1572    3.9614 C.3      1 ZINC001345266033   -0.1500
28     C28     5.3823   -1.8665    5.0250 C.3      1 ZINC001345266033    0.0500
29     O29     4.2810   -1.3507    4.2467 O.3      1 ZINC001345266033   -0.3700
30     C30     4.8449   -0.4892    3.2392 C.3      1 ZINC001345266033    0.0300
31     H31    -0.5690   -0.4614   -3.0566 H        1 ZINC001345266033    0.1300
32     H32     1.3861    0.9893   -3.3790 H        1 ZINC001345266033    0.1300
33     H33     3.3511    0.7756   -1.9459 H        1 ZINC001345266033    0.1600
34     H34    -0.5958   -2.1555   -1.3039 H        1 ZINC001345266033    0.1400
35     H35     0.5746   -3.2759    0.5923 H        1 ZINC001345266033    0.1700
36     H36     4.3893   -2.1508    1.7632 H        1 ZINC001345266033    0.1700
37     H37     8.8304   -0.7936   -0.6128 H        1 ZINC001345266033    0.0700
38     H38     9.0635    0.8049   -1.3564 H        1 ZINC001345266033    0.0500
39     H39    10.6002   -0.2497    1.0602 H        1 ZINC001345266033    0.0800
40     H40    11.2209   -0.1942   -0.6081 H        1 ZINC001345266033    0.0800
41     H41    11.9507    1.7754    0.7944 H        1 ZINC001345266033    0.0700
42     H42    11.0161    2.2480   -0.6492 H        1 ZINC001345266033    0.0700
43     H43     9.3524    2.3786    3.3828 H        1 ZINC001345266033    0.0900
44     H44    11.1313    2.0058    3.0688 H        1 ZINC001345266033    0.0900
45     H45    11.3309    4.1234    1.6856 H        1 ZINC001345266033    0.1000
46     H46     9.5521    4.4962    1.9996 H        1 ZINC001345266033    0.1000
47     H47     8.3333    2.7948   -0.1859 H        1 ZINC001345266033    0.0600
48     H48     7.8130    2.6643    1.5135 H        1 ZINC001345266033    0.0800
49     H49     5.7450   -2.3130    1.3636 H        1 ZINC001345266033    0.1100
50     H50     7.4452   -1.7864    1.3475 H        1 ZINC001345266033    0.1100
51     H51     6.2907   -3.1133    3.4704 H        1 ZINC001345266033    0.0800
52     H52     7.4664   -2.1322    4.4066 H        1 ZINC001345266033    0.0900
53     H53     5.0931   -2.7833    5.5387 H        1 ZINC001345266033    0.1000
54     H54     5.7315   -1.1196    5.7379 H        1 ZINC001345266033    0.0600
55     H55     4.8646    0.5392    3.5998 H        1 ZINC001345266033    0.0600
56     H56     4.2547   -0.5523    2.3250 H        1 ZINC001345266033    0.0900
@<TRIPOS>BOND
1     1     6     ar
2     1     2     ar
3     1     31    1
4     2     3     ar
5     2     32    1
6     3     4     ar
7     3     33    1
8     4     10    ar
9     4     5     ar
10    5     6     ar
11    5     7     ar
12    6     34    1
13    7     8     ar
14    7     35    1
15    8     9     ar
16    9     10    ar
17    9     36    1
18    10    11    1
19    11    23    1
20    11    12    2
21    12    13    1
22    13    14    2
23    14    15    1
24    14    23    1
25    15    22    1
26    15    16    1
27    16    17    1
28    16    37    1
29    16    38    1
30    17    18    1
31    17    39    1
32    17    40    1
33    18    19    1
34    18    41    1
35    18    42    1
36    19    21    1
37    19    20    1
38    19    22    1
39    20    21    1
40    20    43    1
41    20    44    1
42    21    45    1
43    21    46    1
44    22    47    1
45    22    48    1
46    23    24    1
47    24    25    1
48    24    49    1
49    24    50    1
50    25    26    1
51    25    30    1
52    25    27    1
53    27    28    1
54    27    51    1
55    27    52    1
56    28    29    1
57    28    53    1
58    28    54    1
59    29    30    1
60    30    55    1
61    30    56    1
@<TRIPOS>SUBSTRUCTURE
1   ZINC001345266033 1     RESIDUE    1   A     ZIN   1
@<TRIPOS>MOLECULE
ZINC000970996691
54	56	1	0	0
SMALL
USER_CHARGES
@<TRIPOS>ATOM
1      C1      0.5329   -2.0123    3.3490 C.3      1 ZINC000970996691   -0.1500
2      C2      0.7064   -3.3763    2.6782 C.3      1 ZINC000970996691   -0.1200
3      C3      1.1521   -3.1784    1.2279 C.3      1 ZINC000970996691   -0.0300
4      C4      1.3230   -4.5220    0.5672 C.2      1 ZINC000970996691    0.1800
5      N5      0.4055   -5.1933   -0.0863 N.2      1 ZINC000970996691   -0.4700
6      C6      1.0070   -6.3246   -0.4952 C.2      1 ZINC000970996691    0.1800
7      C7      0.3717   -7.4348   -1.2920 C.3      1 ZINC000970996691    0.1500
8      N8      0.5446   -7.1689   -2.7263 N.3      1 ZINC000970996691   -0.5200
9      C9      1.9621   -7.2330   -3.1065 C.3      1 ZINC000970996691    0.0200
10     C10    -0.2595   -8.0957   -3.5342 C.3      1 ZINC000970996691    0.0700
11     H11     0.0241   -9.1295   -3.3371 H        1 ZINC000970996691    0.0600
12     C12    -1.7755   -7.8780   -3.2863 C.3      1 ZINC000970996691   -0.1300
13     C13    -2.4146   -8.3643   -4.6041 C.3      1 ZINC000970996691    0.1000
14     N14    -1.3780   -8.2931   -5.6442 N.am     1 ZINC000970996691   -0.6200
15     C15    -1.5337   -8.6509   -6.9343 C.2      1 ZINC000970996691    0.5300
16     O16    -0.6357   -8.4648   -7.7279 O.2      1 ZINC000970996691   -0.5300
17     C17    -2.8238   -9.2822   -7.3906 C.3      1 ZINC000970996691   -0.1000
18     C18    -3.7564   -8.1992   -7.9366 C.3      1 ZINC000970996691   -0.1100
19     C19    -5.0662   -8.8402   -8.3999 C.3      1 ZINC000970996691   -0.1200
20     C20    -4.7726   -9.8623   -9.4998 C.3      1 ZINC000970996691   -0.1200
21     C21    -3.8399  -10.9454   -8.9539 C.3      1 ZINC000970996691   -0.1200
22     C22    -2.5302  -10.3044   -8.4906 C.3      1 ZINC000970996691   -0.1000
23     C23    -0.1394   -7.7649   -5.0428 C.3      1 ZINC000970996691    0.1200
24     N24     2.2368   -6.2844   -0.0773 N.2      1 ZINC000970996691   -0.3800
25     O25     2.4403   -5.2544    0.5302 O.3      1 ZINC000970996691    0.0800
26     H26     1.4810   -1.4749    3.3304 H        1 ZINC000970996691    0.0600
27     H27    -0.2215   -1.4368    2.8124 H        1 ZINC000970996691    0.0600
28     H28     0.2154   -2.1532    4.3822 H        1 ZINC000970996691    0.0600
29     H29     1.4608   -3.9518    3.2148 H        1 ZINC000970996691    0.0700
30     H30    -0.2417   -3.9137    2.6968 H        1 ZINC000970996691    0.0700
31     H31     0.3977   -2.6030    0.6914 H        1 ZINC000970996691    0.1100
32     H32     2.1002   -2.6411    1.2093 H        1 ZINC000970996691    0.1000
33     H33     0.8470   -8.3822   -1.0381 H        1 ZINC000970996691    0.0700
34     H34    -0.6916   -7.4875   -1.0578 H        1 ZINC000970996691    0.1100
35     H35     2.3530   -8.2262   -2.8855 H        1 ZINC000970996691    0.0300
36     H36     2.0616   -7.0324   -4.1732 H        1 ZINC000970996691    0.0800
37     H37     2.5235   -6.4878   -2.5427 H        1 ZINC000970996691    0.0700
38     H38    -2.1193   -8.4806   -2.4456 H        1 ZINC000970996691    0.0800
39     H39    -1.9914   -6.8226   -3.1194 H        1 ZINC000970996691    0.0900
40     H40    -2.7576   -9.3928   -4.4923 H        1 ZINC000970996691    0.0700
41     H41    -3.2518   -7.7190   -4.8704 H        1 ZINC000970996691    0.0700
42     H42    -3.3015   -9.7822   -6.5481 H        1 ZINC000970996691    0.0900
43     H43    -3.9656   -7.4710   -7.1529 H        1 ZINC000970996691    0.0700
44     H44    -3.2787   -7.6992   -8.7791 H        1 ZINC000970996691    0.0700
45     H45    -5.5439   -9.3402   -7.5574 H        1 ZINC000970996691    0.0600
46     H46    -5.7306   -8.0686   -8.7888 H        1 ZINC000970996691    0.0700
47     H47    -5.7057  -10.3190   -9.8299 H        1 ZINC000970996691    0.0600
48     H48    -4.2948   -9.3623  -10.3423 H        1 ZINC000970996691    0.0600
49     H49    -4.3177  -11.4454   -8.1114 H        1 ZINC000970996691    0.0600
50     H50    -3.6308  -11.6736   -9.7375 H        1 ZINC000970996691    0.0700
51     H51    -2.0524   -9.8044   -9.3331 H        1 ZINC000970996691    0.0800
52     H52    -1.8657  -11.0760   -8.1016 H        1 ZINC000970996691    0.0600
53     H53    -0.0759   -6.6868   -5.1902 H        1 ZINC000970996691    0.0800
54     H54     0.7318   -8.2594   -5.4725 H        1 ZINC000970996691    0.0800
@<TRIPOS>BOND
1     1     2     1
2     1     26    1
3     1     27    1
4     1     28    1
5     2     3     1
6     2     29    1
7     2     30    1
8     3     4     1
9     3     31    1
10    3     32    1
11    4     25    1
12    4     5     2
13    5     6     1
14    6     7     1
15    6     24    2
16    7     8     1
17    7     33    1
18    7     34    1
19    8     9     1
20    8     10    1
21    9     35    1
22    9     36    1
23    9     37    1
24    10    11    1
25    10    23    1
26    10    12    1
27    12    13    1
28    12    38    1
29    12    39    1
30    13    14    1
31    13    40    1
32    13    41    1
33    14    15    am
34    14    23    1
35    15    16    2
36    15    17    1
37    17    22    1
38    17    18    1
39    17    42    1
40    18    19    1
41    18    43    1
42    18    44    1
43    19    20    1
44    19    45    1
45    19    46    1
46    20    21    1
47    20    47    1
48    20    48    1
49    21    22    1
50    21    49    1
51    21    50    1
52    22    51    1
53    22    52    1
54    23    53    1
55    23    54    1
56    24    25    1
@<TRIPOS>SUBSTRUCTURE
1   ZINC000970996691 1     RESIDUE    1   A     ZIN   1
@<TRIPOS>MOLECULE
ZINC000572257265
43	43	1	0	0
SMALL
USER_CHARGES
@<TRIPOS>ATOM
1      C1     -0.0225    1.8097    0.0120 C.3      1 ZINC000572257265   -0.1300
2      S2      0.0021   -0.0041    0.0020 S.3      1 ZINC000572257265   -0.2200
3      C3      0.9059   -0.4083    1.5220 C.3      1 ZINC000572257265   -0.1300
4      C4      1.0141   -1.9280    1.6622 C.3      1 ZINC000572257265    0.1500
5      C5     -0.3839   -2.5467    1.6008 C.3      1 ZINC000572257265   -0.1500
6      O6      1.8126   -2.4488    0.5977 O.3      1 ZINC000572257265   -0.5400
7      C7      1.6654   -2.2714    3.0034 C.3      1 ZINC000572257265    0.0900
8      N8      1.7690   -3.7265    3.1376 N.am     1 ZINC000572257265   -1.1100
9      S9      2.7531   -4.3832    4.2964 S.o2     1 ZINC000572257265    2.6900
10     O10     2.6089   -5.7931    4.1933 O.2      1 ZINC000572257265   -0.9400
11     O11     4.0045   -3.7195    4.1831 O.2      1 ZINC000572257265   -0.9500
12     C12     2.0887   -3.9283    5.8636 C.ar     1 ZINC000572257265   -0.6300
13     C13     2.4923   -2.7540    6.4710 C.ar     1 ZINC000572257265   -0.0400
14     C14     1.9711   -2.3971    7.7006 C.ar     1 ZINC000572257265   -0.0400
15     C15     1.0459   -3.2145    8.3226 C.ar     1 ZINC000572257265   -0.6300
16     S16     0.3820   -2.7599    9.8902 S.o2     1 ZINC000572257265    2.7000
17     O17    -0.0595   -3.9635   10.5032 O.2      1 ZINC000572257265   -0.9400
18     O18     1.3284   -1.8848   10.4883 O.2      1 ZINC000572257265   -0.9400
19     N19    -0.9755   -1.8557    9.6040 N.am     1 ZINC000572257265   -1.1200
20     C20    -2.1391   -2.4661    8.9562 C.3      1 ZINC000572257265    0.2200
21     C21    -3.3130   -1.5962    9.1355 C.1      1 ZINC000572257265    0.1900
22     N22    -4.2189   -0.9249    9.2739 N.1      1 ZINC000572257265   -0.3900
23     C23     0.6413   -4.3882    7.7147 C.ar     1 ZINC000572257265   -0.0400
24     C24     1.1597   -4.7431    6.4833 C.ar     1 ZINC000572257265   -0.0400
25     H25     1.0001    2.1870    0.0043 H        1 ZINC000572257265    0.0800
26     H26    -0.5497    2.1708   -0.8711 H        1 ZINC000572257265    0.1000
27     H27    -0.5327    2.1613    0.9088 H        1 ZINC000572257265    0.0800
28     H28     1.9052    0.0245    1.4765 H        1 ZINC000572257265    0.0900
29     H29     0.3724   -0.0013    2.3810 H        1 ZINC000572257265    0.0900
30     H30    -0.8478   -2.3021    0.6453 H        1 ZINC000572257265    0.0800
31     H31    -0.3068   -3.6294    1.7007 H        1 ZINC000572257265    0.0700
32     H32    -0.9930   -2.1494    2.4128 H        1 ZINC000572257265    0.0800
33     H33     2.7140   -2.0995    0.5749 H        1 ZINC000572257265    0.3800
34     H34     2.6613   -1.8306    3.0471 H        1 ZINC000572257265    0.0900
35     H35     1.0563   -1.8741    3.8153 H        1 ZINC000572257265    0.0800
36     H36     1.2612   -4.3054    2.5477 H        1 ZINC000572257265    0.4300
37     H37     3.2151   -2.1154    5.9850 H        1 ZINC000572257265    0.1500
38     H38     2.2870   -1.4800    8.1754 H        1 ZINC000572257265    0.1500
39     H39    -1.0002   -0.9219    9.8653 H        1 ZINC000572257265    0.4300
40     H40    -1.9386   -2.5910    7.8921 H        1 ZINC000572257265    0.1100
41     H41    -2.3361   -3.4394    9.4055 H        1 ZINC000572257265    0.1300
42     H42    -0.0818   -5.0265    8.2005 H        1 ZINC000572257265    0.1600
43     H43     0.8435   -5.6601    6.0083 H        1 ZINC000572257265    0.1500
@<TRIPOS>BOND
1     1     2     1
2     1     25    1
3     1     26    1
4     1     27    1
5     2     3     1
6     3     4     1
7     3     28    1
8     3     29    1
9     4     5     1
10    4     6     1
11    4     7     1
12    5     30    1
13    5     31    1
14    5     32    1
15    6     33    1
16    7     8     1
17    7     34    1
18    7     35    1
19    8     9     am
20    8     36    1
21    9     10    2
22    9     11    2
23    9     12    1
24    12    24    ar
25    12    13    ar
26    13    14    ar
27    13    37    1
28    14    15    ar
29    14    38    1
30    15    16    1
31    15    23    ar
32    16    17    2
33    16    18    2
34    16    19    am
35    19    20    1
36    19    39    1
37    20    21    1
38    20    40    1
39    20    41    1
40    21    22    3
41    23    24    ar
42    23    42    1
43    24    43    1
@<TRIPOS>SUBSTRUCTURE
1   ZINC000572257265 1     RESIDUE    1   A     ZIN   1
@<TRIPOS>MOLECULE
ZINC000089894387
45	46	1	0	0
SMALL
USER_CHARGES
@<TRIPOS>ATOM
1      C1     -0.0187    1.5258    0.0104 C.3      1 ZINC000089894387   -0.1700
2      C2      0.0021   -0.0041    0.0020 C.3      1 ZINC000089894387    0.1700
3      H3     -1.0205   -0.3814    0.0098 H        1 ZINC000089894387    0.0900
4      N4      0.6878   -0.4765   -1.2033 N.am     1 ZINC000089894387   -0.7400
5      C5      0.0062   -0.6081   -2.3585 C.2      1 ZINC000089894387    0.7100
6      O6     -1.1778   -0.3348   -2.4004 O.2      1 ZINC000089894387   -0.5900
7      N7      0.6370   -1.0428   -3.4674 N.am     1 ZINC000089894387   -0.7500
8      C8     -0.1039   -1.1859   -4.7231 C.3      1 ZINC000089894387    0.1400
9      C9      0.8390   -1.6915   -5.8168 C.3      1 ZINC000089894387    0.0500
10     O10     1.2856   -3.0088   -5.4892 O.3      1 ZINC000089894387   -0.3100
11     C11     2.1361   -3.6073   -6.3640 C.ar     1 ZINC000089894387    0.1400
12     C12     2.5371   -2.9382   -7.5111 C.ar     1 ZINC000089894387   -0.2100
13     C13     3.4018   -3.5483   -8.3994 C.ar     1 ZINC000089894387   -0.0700
14     C14     3.8679   -4.8248   -8.1463 C.ar     1 ZINC000089894387   -0.1500
15     C15     3.4693   -5.4952   -7.0028 C.ar     1 ZINC000089894387    0.0000
16     Cl16    4.0564   -7.0982   -6.6878 Cl       1 ZINC000089894387   -0.0600
17     C17     2.6091   -4.8862   -6.1082 C.ar     1 ZINC000089894387   -0.1500
18     C18     0.7421   -0.5109    1.2415 C.3      1 ZINC000089894387   -0.1000
19     C19     2.1337    0.1261    1.3037 C.3      1 ZINC000089894387   -0.1600
20     C20     2.8361   -0.3251    2.5870 C.3      1 ZINC000089894387    0.0600
21     O21     2.0403    0.0381    3.7170 O.3      1 ZINC000089894387   -0.3800
22     C22     0.7452   -0.5656    3.7369 C.3      1 ZINC000089894387    0.0600
23     C23    -0.0412   -0.1240    2.4998 C.3      1 ZINC000089894387   -0.1500
24     H24     1.0039    1.9031    0.0027 H        1 ZINC000089894387    0.0600
25     H25    -0.5459    1.8868   -0.8726 H        1 ZINC000089894387    0.0600
26     H26    -0.5289    1.8773    0.9072 H        1 ZINC000089894387    0.0700
27     H27     1.6324   -0.6946   -1.1699 H        1 ZINC000089894387    0.3900
28     H28     1.5816   -1.2609   -3.4340 H        1 ZINC000089894387    0.4000
29     H29    -0.9168   -1.8989   -4.5861 H        1 ZINC000089894387    0.0800
30     H30    -0.5138   -0.2191   -5.0153 H        1 ZINC000089894387    0.0900
31     H31     0.3110   -1.7135   -6.7702 H        1 ZINC000089894387    0.0900
32     H32     1.6982   -1.0250   -5.8926 H        1 ZINC000089894387    0.0700
33     H33     2.1732   -1.9410   -7.7099 H        1 ZINC000089894387    0.1300
34     H34     3.7136   -3.0275   -9.2926 H        1 ZINC000089894387    0.1400
35     H35     4.5437   -5.2999   -8.8419 H        1 ZINC000089894387    0.1400
36     H36     2.2984   -5.4091   -5.2158 H        1 ZINC000089894387    0.1400
37     H37     0.8380   -1.5955    1.1908 H        1 ZINC000089894387    0.0800
38     H38     2.7175   -0.1889    0.4388 H        1 ZINC000089894387    0.0700
39     H39     2.0376    1.2119    1.3036 H        1 ZINC000089894387    0.0800
40     H40     2.9681   -1.4069    2.5680 H        1 ZINC000089894387    0.0500
41     H41     3.8102    0.1589    2.6577 H        1 ZINC000089894387    0.0900
42     H42     0.8499   -1.6506    3.7329 H        1 ZINC000089894387    0.0500
43     H43     0.2131   -0.2549    4.6359 H        1 ZINC000089894387    0.1000
44     H44    -0.1812    0.9567    2.5238 H        1 ZINC000089894387    0.0800
45     H45    -1.0128   -0.6180    2.4903 H        1 ZINC000089894387    0.0800
@<TRIPOS>BOND
1     1     2     1
2     1     24    1
3     1     25    1
4     1     26    1
5     2     3     1
6     2     4     1
7     2     18    1
8     4     5     am
9     4     27    1
10    5     6     2
11    5     7     am
12    7     8     1
13    7     28    1
14    8     9     1
15    8     29    1
16    8     30    1
17    9     10    1
18    9     31    1
19    9     32    1
20    10    11    1
21    11    17    ar
22    11    12    ar
23    12    13    ar
24    12    33    1
25    13    14    ar
26    13    34    1
27    14    15    ar
28    14    35    1
29    15    16    1
30    15    17    ar
31    17    36    1
32    18    23    1
33    18    19    1
34    18    37    1
35    19    20    1
36    19    38    1
37    19    39    1
38    20    21    1
39    20    40    1
40    20    41    1
41    21    22    1
42    22    23    1
43    22    42    1
44    22    43    1
45    23    44    1
46    23    45    1
@<TRIPOS>SUBSTRUCTURE
1   ZINC000089894387 1     RESIDUE    1   A     ZIN   1
@<TRIPOS>MOLECULE
ZINC001039666729
45	47	1	0	0
SMALL
USER_CHARGES
@<TRIPOS>ATOM
1      C1     -0.0184    1.5028    0.0103 C.3      1 ZINC001039666729   -0.1100
2      C2      0.0021   -0.0041    0.0020 C.ar     1 ZINC001039666729    0.2200
3      C3      0.0059   -0.6988   -1.1971 C.ar     1 ZINC001039666729   -0.3000
4      C4      0.0249   -2.0844   -1.1602 C.ar     1 ZINC001039666729    0.1900
5      N5      0.0386   -2.6985    0.0112 N.ar     1 ZINC001039666729   -0.5800
6      C6      0.0345   -2.0043    1.1399 C.ar     1 ZINC001039666729    0.6000
7      N7      0.0497   -2.6792    2.3482 N.pl3    1 ZINC001039666729   -0.5900
8      C8      0.0403   -1.9991    3.6794 C.3      1 ZINC001039666729    0.1200
9      C9     -1.4033   -1.5979    3.9907 C.3      1 ZINC001039666729    0.0900
10     N10    -2.2223   -2.8320    4.0857 N.am     1 ZINC001039666729   -0.7400
11     C11    -2.9177   -3.1401    2.9462 C.2      1 ZINC001039666729    0.5200
12     O12    -2.8408   -2.4345    1.9628 O.2      1 ZINC001039666729   -0.5200
13     C13    -3.7801   -4.3760    2.9422 C.3      1 ZINC001039666729   -0.1500
14     C14    -3.2816   -5.3424    1.8658 C.3      1 ZINC001039666729    0.1100
15     N15    -1.8494   -5.6380    2.1288 N.am     1 ZINC001039666729   -0.6100
16     C16    -1.4496   -6.6404    2.9361 C.2      1 ZINC001039666729    0.6100
17     O17    -0.2641   -6.8391    3.1171 O.2      1 ZINC001039666729   -0.5200
18     C18    -2.4527   -7.4982    3.6015 C.2      1 ZINC001039666729   -0.0400
19     N19    -3.7707   -7.4146    3.5025 N.2      1 ZINC001039666729   -0.2500
20     N20    -4.2943   -8.3361    4.2306 N.pl3    1 ZINC001039666729   -0.2300
21     N21    -3.3881   -9.0354    4.8148 N.2      1 ZINC001039666729   -0.2800
22     C22    -2.2075   -8.5807    4.4698 C.2      1 ZINC001039666729    0.0400
23     C23    -0.8931   -4.7405    1.4302 C.3      1 ZINC001039666729    0.1100
24     C24     0.0710   -4.1692    2.4667 C.3      1 ZINC001039666729    0.1300
25     N25     0.0220   -0.6796    1.1393 N.ar     1 ZINC001039666729   -0.5700
26     H26     1.0042    1.8801    0.0026 H        1 ZINC001039666729    0.0800
27     H27    -0.5455    1.8639   -0.8728 H        1 ZINC001039666729    0.0800
28     H28    -0.5286    1.8543    0.9071 H        1 ZINC001039666729    0.0800
29     H29    -0.0060   -0.1721   -2.1399 H        1 ZINC001039666729    0.1400
30     H30     0.0280   -2.6556   -2.0767 H        1 ZINC001039666729    0.1600
31     H31     0.4067   -2.6824    4.4455 H        1 ZINC001039666729    0.0800
32     H32     0.6708   -1.1106    3.6443 H        1 ZINC001039666729    0.0900
33     H33    -1.4386   -1.0600    4.9380 H        1 ZINC001039666729    0.0800
34     H34    -1.7879   -0.9626    3.1928 H        1 ZINC001039666729    0.1000
35     H35    -2.2620   -3.3754    4.8883 H        1 ZINC001039666729    0.4100
36     H36    -3.7264   -4.8596    3.9176 H        1 ZINC001039666729    0.0800
37     H37    -4.8126   -4.0979    2.7309 H        1 ZINC001039666729    0.1100
38     H38    -3.8602   -6.2653    1.9045 H        1 ZINC001039666729    0.1100
39     H39    -3.3873   -4.8833    0.8828 H        1 ZINC001039666729    0.0900
40     H40    -5.2482   -8.4837    4.3267 H        1 ZINC001039666729    0.4700
41     H41    -1.2461   -8.9539    4.7906 H        1 ZINC001039666729    0.2100
42     H42    -0.3387   -5.3062    0.6813 H        1 ZINC001039666729    0.0800
43     H43    -1.4370   -3.9278    0.9488 H        1 ZINC001039666729    0.1200
44     H44     1.0792   -4.5359    2.2742 H        1 ZINC001039666729    0.0700
45     H45    -0.2452   -4.4651    3.4670 H        1 ZINC001039666729    0.0900
@<TRIPOS>BOND
1     1     2     1
2     1     26    1
3     1     27    1
4     1     28    1
5     2     25    ar
6     2     3     ar
7     3     4     ar
8     3     29    1
9     4     5     ar
10    4     30    1
11    5     6     ar
12    6     7     1
13    6     25    ar
14    7     24    1
15    7     8     1
16    8     9     1
17    8     31    1
18    8     32    1
19    9     10    1
20    9     33    1
21    9     34    1
22    10    11    am
23    10    35    1
24    11    12    2
25    11    13    1
26    13    14    1
27    13    36    1
28    13    37    1
29    14    15    1
30    14    38    1
31    14    39    1
32    15    16    am
33    15    23    1
34    16    17    2
35    16    18    1
36    18    22    1
37    18    19    2
38    19    20    1
39    20    21    1
40    20    40    1
41    21    22    2
42    22    41    1
43    23    24    1
44    23    42    1
45    23    43    1
46    24    44    1
47    24    45    1
@<TRIPOS>SUBSTRUCTURE
1   ZINC001039666729 1     RESIDUE    1   A     ZIN   1
@<TRIPOS>MOLECULE
ZINC000190927708
52	53	1	0	0
SMALL
USER_CHARGES
@<TRIPOS>ATOM
1      C1     -0.0187    1.5258    0.0104 C.3      1 ZINC000190927708   -0.1500
2      C2      0.0021   -0.0041    0.0020 C.3      1 ZINC000190927708   -0.1500
3      C3      0.7421   -0.5109    1.2415 C.3      1 ZINC000190927708    0.1000
4      N4      0.7619   -1.9757    1.2335 N.am     1 ZINC000190927708   -0.5900
5      C5      1.7762   -2.6327    0.6366 C.2      1 ZINC000190927708    0.5300
6      O6      1.7926   -3.8453    0.6300 O.2      1 ZINC000190927708   -0.5300
7      C7      2.8898   -1.8604   -0.0224 C.3      1 ZINC000190927708   -0.0800
8      C8      3.8895   -2.8230   -0.6099 C.2      1 ZINC000190927708   -0.1700
9      C9      3.8019   -3.1738   -1.9168 C.2      1 ZINC000190927708    0.0000
10     C10     4.7888   -4.1107   -2.4570 C.ar     1 ZINC000190927708   -0.1300
11     C11     4.7505   -4.5089   -3.7970 C.ar     1 ZINC000190927708   -0.0500
12     C12     5.6869   -5.3841   -4.2705 C.ar     1 ZINC000190927708   -0.1500
13     C13     6.6758   -5.8816   -3.4334 C.ar     1 ZINC000190927708   -0.0600
14     C14     6.7326   -5.5033   -2.1091 C.ar     1 ZINC000190927708   -0.1600
15     C15     5.7905   -4.6132   -1.6048 C.ar     1 ZINC000190927708    0.1900
16     N16     5.8238   -4.2173   -0.2846 N.am     1 ZINC000190927708   -0.6300
17     C17     4.9168   -3.3515    0.2008 C.2      1 ZINC000190927708    0.5500
18     O18     4.9765   -3.0236    1.3732 O.2      1 ZINC000190927708   -0.5300
19     C19    -0.3207   -2.7265    1.8742 C.3      1 ZINC000190927708    0.1500
20     H20    -0.1346   -3.7952    1.7671 H        1 ZINC000190927708    0.1400
21     C21    -1.6514   -2.3713    1.2080 C.3      1 ZINC000190927708   -0.1300
22     C22    -1.6361   -2.8450   -0.2467 C.3      1 ZINC000190927708   -0.1500
23     C23    -0.3808   -2.3713    3.3375 C.2      1 ZINC000190927708    0.4500
24     O24     0.4005   -1.5729    3.7979 O.2      1 ZINC000190927708   -0.5000
25     O25    -1.3023   -2.9418    4.1293 O.3      1 ZINC000190927708   -0.3500
26     C26    -1.3017   -2.5524    5.5281 C.3      1 ZINC000190927708    0.0600
27     C27    -2.4132   -3.3009    6.2664 C.3      1 ZINC000190927708   -0.1500
28     H28     1.0039    1.9031    0.0027 H        1 ZINC000190927708    0.0600
29     H29    -0.5459    1.8868   -0.8726 H        1 ZINC000190927708    0.0600
30     H30    -0.5289    1.8773    0.9072 H        1 ZINC000190927708    0.0600
31     H31    -1.0205   -0.3814    0.0098 H        1 ZINC000190927708    0.0800
32     H32     0.5123   -0.3556   -0.8948 H        1 ZINC000190927708    0.0700
33     H33     1.7647   -0.1336    1.2338 H        1 ZINC000190927708    0.0900
34     H34     0.2319   -0.1594    2.1383 H        1 ZINC000190927708    0.0900
35     H35     2.4788   -1.2348   -0.8148 H        1 ZINC000190927708    0.1100
36     H36     3.3833   -1.2310    0.7182 H        1 ZINC000190927708    0.1200
37     H37     3.0213   -2.7712   -2.5452 H        1 ZINC000190927708    0.1400
38     H38     3.9840   -4.1265   -4.4547 H        1 ZINC000190927708    0.1400
39     H39     5.6569   -5.6918   -5.3054 H        1 ZINC000190927708    0.1300
40     H40     7.4084   -6.5727   -3.8236 H        1 ZINC000190927708    0.1300
41     H41     7.5061   -5.8961   -1.4658 H        1 ZINC000190927708    0.1300
42     H42     6.5140   -4.5652    0.3015 H        1 ZINC000190927708    0.4200
43     H43    -2.4666   -2.8607    1.7410 H        1 ZINC000190927708    0.0900
44     H44    -1.7953   -1.2912    1.2369 H        1 ZINC000190927708    0.0800
45     H45    -2.5841   -2.5919   -0.7213 H        1 ZINC000190927708    0.0600
46     H46    -0.8209   -2.3556   -0.7796 H        1 ZINC000190927708    0.0600
47     H47    -1.4922   -3.9251   -0.2755 H        1 ZINC000190927708    0.0600
48     H48    -0.3384   -2.8005    5.9739 H        1 ZINC000190927708    0.0700
49     H49    -1.4725   -1.4787    5.6064 H        1 ZINC000190927708    0.0700
50     H50    -3.3765   -3.0528    5.8207 H        1 ZINC000190927708    0.0700
51     H51    -2.2424   -4.3746    6.1881 H        1 ZINC000190927708    0.0700
52     H52    -2.4127   -3.0085    7.3165 H        1 ZINC000190927708    0.0800
@<TRIPOS>BOND
1     1     2     1
2     1     28    1
3     1     29    1
4     1     30    1
5     2     3     1
6     2     31    1
7     2     32    1
8     3     4     1
9     3     33    1
10    3     34    1
11    4     5     am
12    4     19    1
13    5     6     2
14    5     7     1
15    7     8     1
16    7     35    1
17    7     36    1
18    8     17    1
19    8     9     2
20    9     10    1
21    9     37    1
22    10    15    ar
23    10    11    ar
24    11    12    ar
25    11    38    1
26    12    13    ar
27    12    39    1
28    13    14    ar
29    13    40    1
30    14    15    ar
31    14    41    1
32    15    16    1
33    16    17    am
34    16    42    1
35    17    18    2
36    19    20    1
37    19    21    1
38    19    23    1
39    21    22    1
40    21    43    1
41    21    44    1
42    22    45    1
43    22    46    1
44    22    47    1
45    23    24    2
46    23    25    1
47    25    26    1
48    26    27    1
49    26    48    1
50    26    49    1
51    27    50    1
52    27    51    1
53    27    52    1
@<TRIPOS>SUBSTRUCTURE
1   ZINC000190927708 1     RESIDUE    1   A     ZIN   1
@<TRIPOS>MOLECULE
ZINC000426037318
48	50	1	0	0
SMALL
USER_CHARGES
@<TRIPOS>ATOM
1      C1      0.0604    1.4202    0.0104 C.3      1 ZINC000426037318    0.0300
2      O2      0.0697   -0.0087    0.0027 O.3      1 ZINC000426037318   -0.3800
3      C3     -1.2319   -0.5985    0.0083 C.3      1 ZINC000426037318    0.1300
4      C4     -1.1032   -2.0999   -0.0006 C.ar     1 ZINC000426037318    0.3900
5      N5     -1.0509   -2.7296   -1.1606 N.ar     1 ZINC000426037318   -0.5700
6      C6     -0.9377   -4.0455   -1.2242 C.ar     1 ZINC000426037318    0.4400
7      O7     -0.8851   -4.6735   -2.4219 O.3      1 ZINC000426037318   -0.2800
8      C8     -0.9573   -3.8520   -3.5889 C.3      1 ZINC000426037318    0.0300
9      C9     -0.8716   -4.7902   -0.0157 C.ar     1 ZINC000426037318   -0.2000
10     C10    -0.7524   -6.1702    0.1851 C.2      1 ZINC000426037318    0.0500
11     C11    -0.6699   -7.1454   -0.9609 C.3      1 ZINC000426037318   -0.1200
12     C12    -0.7163   -6.5656    1.4635 C.2      1 ZINC000426037318   -0.2700
13     C13    -0.5950   -7.9613    1.9027 C.2      1 ZINC000426037318    0.6000
14     O14    -0.5191   -8.8539    1.0791 O.2      1 ZINC000426037318   -0.5000
15     N15    -0.5677   -8.2539    3.2180 N.am     1 ZINC000426037318   -0.6600
16     C16    -0.5469   -9.5901    3.6380 C.ar     1 ZINC000426037318    0.1200
17     C17     0.1329  -10.5423    2.8912 C.ar     1 ZINC000426037318   -0.0700
18     C18     0.1534  -11.8597    3.3062 C.ar     1 ZINC000426037318   -0.0900
19     C19     0.8920  -12.8932    2.4954 C.3      1 ZINC000426037318   -0.1100
20     C20    -0.5051  -12.2317    4.4688 C.ar     1 ZINC000426037318    0.1300
21     O21    -0.4838  -13.5287    4.8764 O.3      1 ZINC000426037318   -0.3100
22     C22    -1.1830  -13.8412    6.0828 C.3      1 ZINC000426037318    0.0200
23     C23    -1.1851  -11.2812    5.2165 C.ar     1 ZINC000426037318   -0.1800
24     C24    -1.2023   -9.9622    4.8059 C.ar     1 ZINC000426037318   -0.0300
25     Cl25   -2.0526   -8.7724    5.7415 Cl       1 ZINC000426037318   -0.0600
26     S26    -0.8333   -5.1861    2.5426 S.3      1 ZINC000426037318    0.2200
27     C27    -0.9316   -4.0708    1.1867 C.ar     1 ZINC000426037318    0.1300
28     N28    -1.0413   -2.7386    1.1452 N.ar     1 ZINC000426037318   -0.5000
29     H29     1.0857    1.7902    0.0055 H        1 ZINC000426037318    0.0900
30     H30    -0.4617    1.7849   -0.8742 H        1 ZINC000426037318    0.0500
31     H31    -0.4499    1.7755    0.9057 H        1 ZINC000426037318    0.0500
32     H32    -1.7690   -0.2851    0.9035 H        1 ZINC000426037318    0.0900
33     H33    -1.7808   -0.2757   -0.8764 H        1 ZINC000426037318    0.0800
34     H34    -0.1246   -3.1487   -3.5902 H        1 ZINC000426037318    0.0700
35     H35    -0.9044   -4.4793   -4.4787 H        1 ZINC000426037318    0.1100
36     H36    -1.8980   -3.3013   -3.5880 H        1 ZINC000426037318    0.0700
37     H37     0.3739   -7.2923   -1.2385 H        1 ZINC000426037318    0.0900
38     H38    -1.1031   -8.0988   -0.6586 H        1 ZINC000426037318    0.1000
39     H39    -1.2207   -6.7504   -1.8145 H        1 ZINC000426037318    0.0800
40     H40    -0.5623   -7.5392    3.8739 H        1 ZINC000426037318    0.4100
41     H41     0.6455  -10.2533    1.9856 H        1 ZINC000426037318    0.1600
42     H42     1.9232  -12.9583    2.8424 H        1 ZINC000426037318    0.0700
43     H43     0.4070  -13.8622    2.6135 H        1 ZINC000426037318    0.0700
44     H44     0.8799  -12.6067    1.4438 H        1 ZINC000426037318    0.0700
45     H45    -0.7589  -13.2682    6.9074 H        1 ZINC000426037318    0.0600
46     H46    -2.2368  -13.5876    5.9682 H        1 ZINC000426037318    0.0600
47     H47    -1.0865  -14.9064    6.2932 H        1 ZINC000426037318    0.1000
48     H48    -1.6976  -11.5717    6.1217 H        1 ZINC000426037318    0.1500
@<TRIPOS>BOND
1     1     2     1
2     1     29    1
3     1     30    1
4     1     31    1
5     2     3     1
6     3     4     1
7     3     32    1
8     3     33    1
9     4     28    ar
10    4     5     ar
11    5     6     ar
12    6     7     1
13    6     9     ar
14    7     8     1
15    8     34    1
16    8     35    1
17    8     36    1
18    9     27    ar
19    9     10    1
20    10    11    1
21    10    12    2
22    11    37    1
23    11    38    1
24    11    39    1
25    12    13    1
26    12    26    1
27    13    14    2
28    13    15    am
29    15    16    1
30    15    40    1
31    16    24    ar
32    16    17    ar
33    17    18    ar
34    17    41    1
35    18    19    1
36    18    20    ar
37    19    42    1
38    19    43    1
39    19    44    1
40    20    21    1
41    20    23    ar
42    21    22    1
43    22    45    1
44    22    46    1
45    22    47    1
46    23    24    ar
47    23    48    1
48    24    25    1
49    26    27    1
50    27    28    ar
@<TRIPOS>SUBSTRUCTURE
1   ZINC000426037318 1     RESIDUE    1   A     ZIN   1
@<TRIPOS>MOLECULE
ZINC000119180466
44	44	1	0	0
SMALL
USER_CHARGES
@<TRIPOS>ATOM
1      C1     -0.0225    1.8097    0.0120 C.3      1 ZINC000119180466   -0.1300
2      S2      0.0021   -0.0041    0.0020 S.3      1 ZINC000119180466   -0.2200
3      C3      0.9059   -0.4083    1.5220 C.3      1 ZINC000119180466   -0.0700
4      H4      0.4216    0.0731    2.3716 H        1 ZINC000119180466    0.1100
5      C5      2.3474    0.0912    1.4064 C.3      1 ZINC000119180466    0.0800
6      O6      3.0174   -0.6242    0.3665 O.3      1 ZINC000119180466   -0.5600
7      C7      0.9064   -1.9245    1.7271 C.3      1 ZINC000119180466    0.1900
8      H8      1.3713   -2.1615    2.6841 H        1 ZINC000119180466    0.1000
9      C9     -0.5338   -2.4408    1.7181 C.3      1 ZINC000119180466   -0.1700
10     N10     1.6610   -2.5632    0.6461 N.am     1 ZINC000119180466   -0.7200
11     C11     2.2291   -3.7696    0.8422 C.2      1 ZINC000119180466    0.7100
12     O12     2.1152   -4.3278    1.9164 O.2      1 ZINC000119180466   -0.6000
13     N13     2.9233   -4.3573   -0.1524 N.am     1 ZINC000119180466   -0.7400
14     C14     3.5408   -5.6686    0.0608 C.3      1 ZINC000119180466    0.2000
15     H15     3.8908   -5.7423    1.0904 H        1 ZINC000119180466    0.1000
16     C16     2.5102   -6.7672   -0.2074 C.3      1 ZINC000119180466   -0.1600
17     C17     4.7070   -5.8334   -0.8793 C.ar     1 ZINC000119180466   -0.0600
18     C18     4.6161   -5.3753   -2.1804 C.ar     1 ZINC000119180466   -0.1100
19     C19     5.6859   -5.5266   -3.0427 C.ar     1 ZINC000119180466   -0.0600
20     C20     6.8467   -6.1355   -2.6038 C.ar     1 ZINC000119180466   -0.1800
21     C21     8.0127   -6.3009   -3.5440 C.3      1 ZINC000119180466    0.5100
22     F22     8.8452   -5.1799   -3.4562 F        1 ZINC000119180466   -0.1800
23     F23     8.7351   -7.4467   -3.1942 F        1 ZINC000119180466   -0.1800
24     F24     7.5404   -6.4294   -4.8546 F        1 ZINC000119180466   -0.1800
25     C25     6.9381   -6.5924   -1.3024 C.ar     1 ZINC000119180466   -0.0600
26     C26     5.8697   -6.4377   -0.4389 C.ar     1 ZINC000119180466   -0.1100
27     H27     1.0001    2.1870    0.0043 H        1 ZINC000119180466    0.0800
28     H28    -0.5497    2.1708   -0.8711 H        1 ZINC000119180466    0.1000
29     H29    -0.5327    2.1613    0.9088 H        1 ZINC000119180466    0.0800
30     H30     2.3453    1.1557    1.1720 H        1 ZINC000119180466    0.0500
31     H31     2.8653   -0.0717    2.3515 H        1 ZINC000119180466    0.0600
32     H32     3.9382   -0.3588    0.2368 H        1 ZINC000119180466    0.3800
33     H33    -0.9988   -2.2038    0.7611 H        1 ZINC000119180466    0.0700
34     H34    -0.5334   -3.5210    1.8642 H        1 ZINC000119180466    0.0700
35     H35    -1.0953   -1.9656    2.5224 H        1 ZINC000119180466    0.0700
36     H36     1.7518   -2.1180   -0.2109 H        1 ZINC000119180466    0.4100
37     H37     3.0141   -3.9120   -1.0093 H        1 ZINC000119180466    0.4000
38     H38     2.9696   -7.7428   -0.0488 H        1 ZINC000119180466    0.0700
39     H39     1.6667   -6.6479    0.4726 H        1 ZINC000119180466    0.0700
40     H40     2.1602   -6.6935   -1.2370 H        1 ZINC000119180466    0.0600
41     H41     3.7092   -4.8996   -2.5232 H        1 ZINC000119180466    0.1300
42     H42     5.6146   -5.1693   -4.0594 H        1 ZINC000119180466    0.1400
43     H43     7.8451   -7.0679   -0.9594 H        1 ZINC000119180466    0.1400
44     H44     5.9410   -6.7947    0.5779 H        1 ZINC000119180466    0.1400
@<TRIPOS>BOND
1     1     2     1
2     1     27    1
3     1     28    1
4     1     29    1
5     2     3     1
6     3     4     1
7     3     5     1
8     3     7     1
9     5     6     1
10    5     30    1
11    5     31    1
12    6     32    1
13    7     8     1
14    7     9     1
15    7     10    1
16    9     33    1
17    9     34    1
18    9     35    1
19    10    11    am
20    10    36    1
21    11    12    2
22    11    13    am
23    13    14    1
24    13    37    1
25    14    15    1
26    14    16    1
27    14    17    1
28    16    38    1
29    16    39    1
30    16    40    1
31    17    26    ar
32    17    18    ar
33    18    19    ar
34    18    41    1
35    19    20    ar
36    19    42    1
37    20    21    1
38    20    25    ar
39    21    22    1
40    21    23    1
41    21    24    1
42    25    26    ar
43    25    43    1
44    26    44    1
@<TRIPOS>SUBSTRUCTURE
1   ZINC000119180466 1     RESIDUE    1   A     ZIN   1
@<TRIPOS>MOLECULE
ZINC000533131987
50	52	1	0	0
SMALL
USER_CHARGES
@<TRIPOS>ATOM
1      O1      0.3189   -0.6295   -0.1355 O.2      1 ZINC000533131987   -0.5700
2      C2      0.1850    0.5414    0.1636 C.2      1 ZINC000533131987    0.7100
3      N3      1.2647    1.3440    0.2445 N.am     1 ZINC000533131987   -0.7400
4      C4      2.5996    0.8057   -0.0280 C.3      1 ZINC000533131987    0.1400
5      C5      3.6398    1.9162    0.1320 C.3      1 ZINC000533131987   -0.0900
6      H6      3.3725    2.7590   -0.5056 H        1 ZINC000533131987    0.0900
7      C7      3.6778    2.3729    1.5917 C.3      1 ZINC000533131987    0.0800
8      O8      4.5875    3.4669    1.7250 O.3      1 ZINC000533131987   -0.5600
9      C9      5.0172    1.3871   -0.2729 C.3      1 ZINC000533131987   -0.0900
10     C10     6.0097    2.5211   -0.2765 C.ar     1 ZINC000533131987    0.0000
11     C11     5.8626    3.5654   -1.1699 C.ar     1 ZINC000533131987   -0.1100
12     C12     6.7732    4.6057   -1.1732 C.ar     1 ZINC000533131987   -0.0800
13     C13     7.8303    4.6017   -0.2828 C.ar     1 ZINC000533131987   -0.1300
14     C14     7.9770    3.5575    0.6114 C.ar     1 ZINC000533131987   -0.0700
15     C15     7.0643    2.5196    0.6176 C.ar     1 ZINC000533131987   -0.1700
16     C16     7.2241    1.3815    1.5924 C.3      1 ZINC000533131987    0.5100
17     F17     8.3416    1.6137    2.4013 F        1 ZINC000533131987   -0.1800
18     F18     6.0803    1.2888    2.3927 F        1 ZINC000533131987   -0.1700
19     F19     7.3986    0.1853    0.8881 F        1 ZINC000533131987   -0.1800
20     N20    -1.0437    1.0379    0.4089 N.am     1 ZINC000533131987   -0.6900
21     C21    -2.1735    0.2322    0.2260 C.ar     1 ZINC000533131987    0.1600
22     C22    -2.1157   -1.1235    0.5250 C.ar     1 ZINC000533131987   -0.1000
23     C23    -3.2289   -1.9237    0.3461 C.ar     1 ZINC000533131987   -0.1000
24     C24    -4.4047   -1.3813   -0.1305 C.ar     1 ZINC000533131987   -0.1000
25     C25    -4.4729   -0.0202   -0.4339 C.ar     1 ZINC000533131987    0.0000
26     C26    -5.7316    0.5637   -0.9443 C.2      1 ZINC000533131987    0.2300
27     N27    -5.9165    1.8217   -1.2684 N.2      1 ZINC000533131987   -0.4700
28     C28    -7.1809    1.9747   -1.6899 C.2      1 ZINC000533131987   -0.0400
29     C29    -7.7863    0.7750   -1.6212 C.2      1 ZINC000533131987   -0.0700
30     O30    -6.8770   -0.1062   -1.1597 O.3      1 ZINC000533131987   -0.2000
31     C31    -3.3518    0.7879   -0.2480 C.ar     1 ZINC000533131987   -0.1000
32     H32     1.1578    2.2781    0.4832 H        1 ZINC000533131987    0.4000
33     H33     2.8169    0.0005    0.6738 H        1 ZINC000533131987    0.0700
34     H34     2.6346    0.4191   -1.0466 H        1 ZINC000533131987    0.0800
35     H35     2.6812    2.6895    1.8994 H        1 ZINC000533131987    0.0400
36     H36     4.0076    1.5473    2.2223 H        1 ZINC000533131987    0.0600
37     H37     4.6055    3.8580    2.6093 H        1 ZINC000533131987    0.3800
38     H38     5.3376    0.6261    0.4387 H        1 ZINC000533131987    0.0800
39     H39     4.9601    0.9510   -1.2702 H        1 ZINC000533131987    0.0900
40     H40     5.0365    3.5685   -1.8656 H        1 ZINC000533131987    0.1300
41     H41     6.6586    5.4214   -1.8718 H        1 ZINC000533131987    0.1300
42     H42     8.5421    5.4140   -0.2859 H        1 ZINC000533131987    0.1300
43     H43     8.8032    3.5542    1.3069 H        1 ZINC000533131987    0.1300
44     H44    -1.1451    1.9537    0.7122 H        1 ZINC000533131987    0.4100
45     H45    -1.1980   -1.5537    0.8981 H        1 ZINC000533131987    0.1500
46     H46    -3.1779   -2.9768    0.5799 H        1 ZINC000533131987    0.1400
47     H47    -5.2720   -2.0097   -0.2693 H        1 ZINC000533131987    0.1300
48     H48    -7.6326    2.8968   -2.0247 H        1 ZINC000533131987    0.1900
49     H49    -8.8095    0.5578   -1.8898 H        1 ZINC000533131987    0.2200
50     H50    -3.3986    1.8414   -0.4809 H        1 ZINC000533131987    0.1400
@<TRIPOS>BOND
1     1     2     2
2     2     3     am
3     2     20    am
4     3     4     1
5     3     32    1
6     4     5     1
7     4     33    1
8     4     34    1
9     5     6     1
10    5     7     1
11    5     9     1
12    7     8     1
13    7     35    1
14    7     36    1
15    8     37    1
16    9     10    1
17    9     38    1
18    9     39    1
19    10    15    ar
20    10    11    ar
21    11    12    ar
22    11    40    1
23    12    13    ar
24    12    41    1
25    13    14    ar
26    13    42    1
27    14    15    ar
28    14    43    1
29    15    16    1
30    16    17    1
31    16    18    1
32    16    19    1
33    20    21    1
34    20    44    1
35    21    31    ar
36    21    22    ar
37    22    23    ar
38    22    45    1
39    23    24    ar
40    23    46    1
41    24    25    ar
42    24    47    1
43    25    26    1
44    25    31    ar
45    26    30    1
46    26    27    2
47    27    28    1
48    28    29    2
49    28    48    1
50    29    30    1
51    29    49    1
52    31    50    1
@<TRIPOS>SUBSTRUCTURE
1   ZINC000533131987 1     RESIDUE    1   A     ZIN   1
@<TRIPOS>MOLECULE
ZINC000482846390
58	60	1	0	0
SMALL
USER_CHARGES
@<TRIPOS>ATOM
1      C1      2.2428    2.5152    0.4684 C.3      1 ZINC000482846390   -0.1000
2      C2      1.7176    1.1036    0.5192 C.2      1 ZINC000482846390    0.0900
3      C3      1.2494    0.3883   -0.5297 C.2      1 ZINC000482846390   -0.2700
4      C4      0.8628   -0.8692   -0.0549 C.2      1 ZINC000482846390    0.0700
5      C5      0.2846   -1.9872   -0.8836 C.3      1 ZINC000482846390   -0.0500
6      C6      1.1249   -3.2513   -0.6921 C.3      1 ZINC000482846390    0.1500
7      H7      2.1675   -3.0331   -0.9237 H        1 ZINC000482846390    0.1000
8      C8      0.6141   -4.3497   -1.6267 C.3      1 ZINC000482846390   -0.1700
9      N9      1.0176   -3.7033    0.6973 N.am     1 ZINC000482846390   -0.6800
10     C10     2.0017   -4.4455    1.2424 C.2      1 ZINC000482846390    0.5100
11     O11     2.9766   -4.7393    0.5824 O.2      1 ZINC000482846390   -0.5200
12     C12     1.8922   -4.9065    2.6598 C.2      1 ZINC000482846390    0.5100
13     O13     0.8699   -4.7116    3.2840 O.2      1 ZINC000482846390   -0.5100
14     N14     2.9287   -5.5388    3.2448 N.am     1 ZINC000482846390   -0.5900
15     C15     4.2341   -5.6139    2.5738 C.3      1 ZINC000482846390    0.0500
16     C16     5.3024   -5.0435    3.5148 C.3      1 ZINC000482846390    0.1000
17     N17     5.1478   -5.6697    4.8353 N.am     1 ZINC000482846390   -0.6000
18     C18     6.1846   -6.3012    5.4207 C.2      1 ZINC000482846390    0.5200
19     O19     7.2818   -6.2746    4.9030 O.2      1 ZINC000482846390   -0.5000
20     C20     5.9831   -7.0343    6.7074 C.2      1 ZINC000482846390    0.5200
21     O21     5.6709   -8.2069    6.6951 O.2      1 ZINC000482846390   -0.5000
22     N22     6.1480   -6.3931    7.8813 N.am     1 ZINC000482846390   -0.6000
23     C23     6.4066   -4.9451    7.9237 C.3      1 ZINC000482846390    0.0700
24     C24     5.4209   -4.3066    8.9088 C.3      1 ZINC000482846390    0.0500
25     O25     5.4872   -5.0002   10.1572 O.3      1 ZINC000482846390   -0.3700
26     C26     5.1049   -6.3758   10.0835 C.3      1 ZINC000482846390    0.0500
27     C27     6.0688   -7.1192    9.1587 C.3      1 ZINC000482846390    0.0700
28     C28     3.8424   -5.5946    5.5064 C.3      1 ZINC000482846390    0.0900
29     C29     2.7757   -6.1602    4.5678 C.3      1 ZINC000482846390    0.0900
30     N30     1.0907   -0.9076    1.2329 N.2      1 ZINC000482846390   -0.2800
31     N31     1.6353    0.3243    1.6179 N.pl3    1 ZINC000482846390   -0.4700
32     H32     3.3150    2.4971    0.2732 H        1 ZINC000482846390    0.0800
33     H33     1.7377    3.0624   -0.3276 H        1 ZINC000482846390    0.0900
34     H34     2.0555    3.0071    1.4229 H        1 ZINC000482846390    0.0700
35     H35     1.1853    0.7285   -1.5527 H        1 ZINC000482846390    0.1500
36     H36    -0.7405   -2.1810   -0.5676 H        1 ZINC000482846390    0.0900
37     H37     0.2926   -1.7014   -1.9354 H        1 ZINC000482846390    0.1100
38     H38     0.6940   -4.0135   -2.6604 H        1 ZINC000482846390    0.0700
39     H39     1.2128   -5.2503   -1.4902 H        1 ZINC000482846390    0.0700
40     H40    -0.4284   -4.5680   -1.3951 H        1 ZINC000482846390    0.0600
41     H41     0.2383   -3.4684    1.2249 H        1 ZINC000482846390    0.4200
42     H42     4.4674   -6.6533    2.3428 H        1 ZINC000482846390    0.0800
43     H43     4.2069   -5.0294    1.6541 H        1 ZINC000482846390    0.1600
44     H44     6.2939   -5.2641    3.1192 H        1 ZINC000482846390    0.1100
45     H45     5.1731   -3.9649    3.6040 H        1 ZINC000482846390    0.0800
46     H46     7.4283   -4.7643    8.2576 H        1 ZINC000482846390    0.0900
47     H47     6.2630   -4.5173    6.9315 H        1 ZINC000482846390    0.0900
48     H48     5.6836   -3.2596    9.0597 H        1 ZINC000482846390    0.1100
49     H49     4.4096   -4.3748    8.5078 H        1 ZINC000482846390    0.0600
50     H50     5.1403   -6.8173   11.0794 H        1 ZINC000482846390    0.1100
51     H51     4.0925   -6.4515    9.6867 H        1 ZINC000482846390    0.0600
52     H52     5.7039   -8.1316    8.9853 H        1 ZINC000482846390    0.1100
53     H53     7.0582   -7.1582    9.6145 H        1 ZINC000482846390    0.0800
54     H54     3.8697   -6.1791    6.4260 H        1 ZINC000482846390    0.0900
55     H55     3.6092   -4.5552    5.7374 H        1 ZINC000482846390    0.0900
56     H56     1.7848   -5.9389    4.9646 H        1 ZINC000482846390    0.1100
57     H57     2.9034   -7.2388    4.4765 H        1 ZINC000482846390    0.0800
58     H58     1.9007    0.5751    2.5166 H        1 ZINC000482846390    0.4400
@<TRIPOS>BOND
1     1     2     1
2     1     32    1
3     1     33    1
4     1     34    1
5     2     31    1
6     2     3     2
7     3     4     1
8     3     35    1
9     4     5     1
10    4     30    2
11    5     6     1
12    5     36    1
13    5     37    1
14    6     7     1
15    6     8     1
16    6     9     1
17    8     38    1
18    8     39    1
19    8     40    1
20    9     10    am
21    9     41    1
22    10    11    2
23    10    12    1
24    12    13    2
25    12    14    am
26    14    29    1
27    14    15    1
28    15    16    1
29    15    42    1
30    15    43    1
31    16    17    1
32    16    44    1
33    16    45    1
34    17    18    am
35    17    28    1
36    18    19    2
37    18    20    1
38    20    21    2
39    20    22    am
40    22    27    1
41    22    23    1
42    23    24    1
43    23    46    1
44    23    47    1
45    24    25    1
46    24    48    1
47    24    49    1
48    25    26    1
49    26    27    1
50    26    50    1
51    26    51    1
52    27    52    1
53    27    53    1
54    28    29    1
55    28    54    1
56    28    55    1
57    29    56    1
58    29    57    1
59    30    31    1
60    31    58    1
@<TRIPOS>SUBSTRUCTURE
1   ZINC000482846390 1     RESIDUE    1   A     ZIN   1
@<TRIPOS>MOLECULE
ZINC000867639366
49	51	1	0	0
SMALL
USER_CHARGES
@<TRIPOS>ATOM
1      C1     -0.1621    0.9763    0.6264 C.3      1 ZINC000867639366    0.0300
2      O2     -0.0785   -0.4244    0.3561 O.3      1 ZINC000867639366   -0.3800
3      C3      0.6072   -0.7424   -0.8567 C.3      1 ZINC000867639366    0.0800
4      H4      1.3590    0.0202   -1.0602 H        1 ZINC000867639366    0.0800
5      C5     -0.3951   -0.7927   -2.0121 C.3      1 ZINC000867639366   -0.1400
6      C6     -1.4702   -1.8396   -1.7118 C.3      1 ZINC000867639366   -0.1200
7      C7     -0.8133   -3.2174   -1.5813 C.3      1 ZINC000867639366    0.1500
8      H8     -0.3873   -3.5114   -2.5405 H        1 ZINC000867639366    0.0800
9      C9     -1.8601   -4.2458   -1.1482 C.3      1 ZINC000867639366   -0.1900
10     N10     0.2519   -3.1397   -0.5723 N.am     1 ZINC000867639366   -0.9800
11     S11     0.2847   -4.1957    0.7029 S.o2     1 ZINC000867639366    2.6900
12     O12     1.1485   -3.6236    1.6755 O.2      1 ZINC000867639366   -0.9500
13     O13    -1.0668   -4.5424    0.9717 O.2      1 ZINC000867639366   -0.9400
14     C14     1.0737   -5.6676    0.1411 C.ar     1 ZINC000867639366   -0.6300
15     C15     0.3227   -6.6827   -0.4216 C.ar     1 ZINC000867639366   -0.0500
16     C16     0.9417   -7.8375   -0.8624 C.ar     1 ZINC000867639366   -0.0400
17     C17     2.3116   -7.9770   -0.7410 C.ar     1 ZINC000867639366   -0.6300
18     S18     3.1005   -9.4491   -1.3023 S.o2     1 ZINC000867639366    2.7000
19     O19     4.3208   -9.5503   -0.5814 O.2      1 ZINC000867639366   -0.9400
20     O20     2.1067  -10.4648   -1.2946 O.2      1 ZINC000867639366   -0.9500
21     N21     3.5127   -9.2102   -2.8883 N.am     1 ZINC000867639366   -1.0800
22     C22     4.5036   -8.1909   -3.2420 C.3      1 ZINC000867639366    0.0800
23     C23     5.4130   -8.4750   -4.4392 C.3      1 ZINC000867639366   -0.1800
24     C24     4.2992   -7.4324   -4.5550 C.3      1 ZINC000867639366   -0.1900
25     C25     3.0627   -6.9613   -0.1796 C.ar     1 ZINC000867639366   -0.0400
26     C26     2.4442   -5.8049    0.2577 C.ar     1 ZINC000867639366   -0.0400
27     C27     1.2883   -2.1073   -0.7162 C.3      1 ZINC000867639366    0.1200
28     H28     0.8425    1.3914    0.7066 H        1 ZINC000867639366    0.0400
29     H29    -0.6963    1.4716   -0.1844 H        1 ZINC000867639366    0.0400
30     H30    -0.6964    1.1342    1.5633 H        1 ZINC000867639366    0.0900
31     H31    -0.8629    0.1848   -2.1298 H        1 ZINC000867639366    0.0700
32     H32     0.1246   -1.0595   -2.9323 H        1 ZINC000867639366    0.0700
33     H33    -1.9737   -1.5868   -0.7787 H        1 ZINC000867639366    0.0800
34     H34    -2.1967   -1.8585   -2.5242 H        1 ZINC000867639366    0.0800
35     H35    -2.5783   -4.3949   -1.9545 H        1 ZINC000867639366    0.0700
36     H36    -1.3680   -5.1913   -0.9205 H        1 ZINC000867639366    0.0600
37     H37    -2.3798   -3.8838   -0.2611 H        1 ZINC000867639366    0.1000
38     H38    -0.7476   -6.5738   -0.5164 H        1 ZINC000867639366    0.1600
39     H39     0.3549   -8.6309   -1.3013 H        1 ZINC000867639366    0.1500
40     H40     3.0980   -9.7452   -3.5831 H        1 ZINC000867639366    0.4200
41     H41     4.9314   -7.6403   -2.4041 H        1 ZINC000867639366    0.1400
42     H42     6.4394   -8.1116   -4.3890 H        1 ZINC000867639366    0.1100
43     H43     5.2739   -9.4204   -4.9636 H        1 ZINC000867639366    0.1000
44     H44     3.4274   -7.6919   -5.1556 H        1 ZINC000867639366    0.1000
45     H45     4.5928   -6.3831   -4.5810 H        1 ZINC000867639366    0.1000
46     H46     4.1330   -7.0701   -0.0851 H        1 ZINC000867639366    0.1500
47     H47     3.0310   -5.0114    0.6963 H        1 ZINC000867639366    0.1500
48     H48     1.8858   -2.3108   -1.6049 H        1 ZINC000867639366    0.0900
49     H49     1.9292   -2.1075    0.1654 H        1 ZINC000867639366    0.1000
@<TRIPOS>BOND
1     1     2     1
2     1     28    1
3     1     29    1
4     1     30    1
5     2     3     1
6     3     4     1
7     3     27    1
8     3     5     1
9     5     6     1
10    5     31    1
11    5     32    1
12    6     7     1
13    6     33    1
14    6     34    1
15    7     8     1
16    7     9     1
17    7     10    1
18    9     35    1
19    9     36    1
20    9     37    1
21    10    11    am
22    10    27    1
23    11    12    2
24    11    13    2
25    11    14    1
26    14    26    ar
27    14    15    ar
28    15    16    ar
29    15    38    1
30    16    17    ar
31    16    39    1
32    17    18    1
33    17    25    ar
34    18    19    2
35    18    20    2
36    18    21    am
37    21    22    1
38    21    40    1
39    22    24    1
40    22    23    1
41    22    41    1
42    23    24    1
43    23    42    1
44    23    43    1
45    24    44    1
46    24    45    1
47    25    26    ar
48    25    46    1
49    26    47    1
50    27    48    1
51    27    49    1
@<TRIPOS>SUBSTRUCTURE
1   ZINC000867639366 1     RESIDUE    1   A     ZIN   1
@<TRIPOS>MOLECULE
ZINC000532153088
57	59	1	0	0
SMALL
USER_CHARGES
@<TRIPOS>ATOM
1      C1     -0.1323    1.6856   -0.3038 C.3      1 ZINC000532153088   -0.1800
2      C2     -0.1632    0.1570   -0.2460 C.3      1 ZINC000532153088    0.0800
3      C3      0.5445   -0.3198    1.0239 C.3      1 ZINC000532153088   -0.1500
4      O4     -1.5198   -0.2919   -0.2325 O.3      1 ZINC000532153088   -0.3800
5      C5     -2.0682   -0.5238   -1.5316 C.3      1 ZINC000532153088    0.1000
6      C6     -3.4947   -0.9913   -1.3984 C.ar     1 ZINC000532153088   -0.0700
7      C7     -4.0639   -1.1254   -0.1461 C.ar     1 ZINC000532153088   -0.1000
8      C8     -5.3726   -1.5543   -0.0240 C.ar     1 ZINC000532153088   -0.1100
9      C9     -6.1118   -1.8484   -1.1542 C.ar     1 ZINC000532153088   -0.1200
10     C10    -5.5427   -1.7133   -2.4070 C.ar     1 ZINC000532153088   -0.1000
11     C11    -4.2358   -1.2805   -2.5292 C.ar     1 ZINC000532153088   -0.1100
12     C12    -3.6154   -1.1332   -3.8947 C.3      1 ZINC000532153088    0.1600
13     N13    -2.7774   -2.3008   -4.1789 N.am     1 ZINC000532153088   -0.7300
14     C14    -2.1184   -2.3880   -5.3513 C.2      1 ZINC000532153088    0.5100
15     O15    -2.2191   -1.4999   -6.1710 O.2      1 ZINC000532153088   -0.5000
16     C16    -1.2564   -3.5891   -5.6436 C.3      1 ZINC000532153088    0.0300
17     N17    -0.5510   -3.3875   -6.9163 N.3      1 ZINC000532153088   -0.4800
18     C18     0.5479   -2.4249   -6.7624 C.3      1 ZINC000532153088    0.1000
19     C19     1.0877   -2.0574   -8.1205 C.ar     1 ZINC000532153088   -0.1300
20     C20     2.2408   -2.6565   -8.5906 C.ar     1 ZINC000532153088   -0.0600
21     C21     2.7369   -2.3208   -9.8364 C.ar     1 ZINC000532153088   -0.1700
22     C22     2.0788   -1.3837  -10.6146 C.ar     1 ZINC000532153088    0.1300
23     F23     2.5636   -1.0561  -11.8324 F        1 ZINC000532153088   -0.1300
24     C24     0.9235   -0.7829  -10.1447 C.ar     1 ZINC000532153088   -0.2000
25     C25     0.4248   -1.1237   -8.8995 C.ar     1 ZINC000532153088    0.1600
26     F26    -0.7025   -0.5382   -8.4396 F        1 ZINC000532153088   -0.1100
27     C27    -0.0615   -4.6636   -7.4548 C.3      1 ZINC000532153088    0.0200
28     C28    -0.1868   -5.9009   -6.5636 C.3      1 ZINC000532153088   -0.2200
29     C29    -1.1008   -5.7384   -7.7797 C.3      1 ZINC000532153088   -0.1700
30     H30     0.9024    2.0280   -0.3141 H        1 ZINC000532153088    0.0700
31     H31    -0.6365    2.0252   -1.2085 H        1 ZINC000532153088    0.0600
32     H32    -0.6410    2.0925    0.5702 H        1 ZINC000532153088    0.0700
33     H33     0.3455   -0.2500   -1.1200 H        1 ZINC000532153088    0.0600
34     H34     0.0358    0.0871    1.8979 H        1 ZINC000532153088    0.0600
35     H35     0.5225   -1.4088    1.0650 H        1 ZINC000532153088    0.0600
36     H36     1.5792    0.0226    1.0136 H        1 ZINC000532153088    0.0700
37     H37    -2.0412    0.4010   -2.1078 H        1 ZINC000532153088    0.0600
38     H38    -1.4818   -1.2875   -2.0425 H        1 ZINC000532153088    0.0600
39     H39    -3.4863   -0.8956    0.7370 H        1 ZINC000532153088    0.1300
40     H40    -5.8172   -1.6598    0.9546 H        1 ZINC000532153088    0.1200
41     H41    -7.1339   -2.1840   -1.0588 H        1 ZINC000532153088    0.1300
42     H42    -6.1202   -1.9434   -3.2901 H        1 ZINC000532153088    0.1300
43     H43    -4.4024   -1.0595   -4.6453 H        1 ZINC000532153088    0.0800
44     H44    -3.0032   -0.2318   -3.9204 H        1 ZINC000532153088    0.0800
45     H45    -2.6969   -3.0111   -3.5232 H        1 ZINC000532153088    0.4000
46     H46    -0.5294   -3.7184   -4.8418 H        1 ZINC000532153088    0.0700
47     H47    -1.8833   -4.4781   -5.7125 H        1 ZINC000532153088    0.1100
48     H48     0.1788   -1.5288   -6.2635 H        1 ZINC000532153088    0.0900
49     H49     1.3420   -2.8725   -6.1647 H        1 ZINC000532153088    0.0500
50     H50     2.7551   -3.3873   -7.9841 H        1 ZINC000532153088    0.1400
51     H51     3.6384   -2.7893  -10.2027 H        1 ZINC000532153088    0.1400
52     H52     0.4094   -0.0518  -10.7511 H        1 ZINC000532153088    0.1500
53     H53     0.8122   -4.5961   -8.1029 H        1 ZINC000532153088    0.1200
54     H54     0.6048   -6.6478   -6.6252 H        1 ZINC000532153088    0.1000
55     H55    -0.6324   -5.7681   -5.5777 H        1 ZINC000532153088    0.1000
56     H56    -2.1478   -5.4986   -7.5939 H        1 ZINC000532153088    0.1000
57     H57    -0.9106   -6.3783   -8.6414 H        1 ZINC000532153088    0.1000
@<TRIPOS>BOND
1     1     2     1
2     1     30    1
3     1     31    1
4     1     32    1
5     2     3     1
6     2     4     1
7     2     33    1
8     3     34    1
9     3     35    1
10    3     36    1
11    4     5     1
12    5     6     1
13    5     37    1
14    5     38    1
15    6     11    ar
16    6     7     ar
17    7     8     ar
18    7     39    1
19    8     9     ar
20    8     40    1
21    9     10    ar
22    9     41    1
23    10    11    ar
24    10    42    1
25    11    12    1
26    12    13    1
27    12    43    1
28    12    44    1
29    13    14    am
30    13    45    1
31    14    15    2
32    14    16    1
33    16    17    1
34    16    46    1
35    16    47    1
36    17    18    1
37    17    27    1
38    18    19    1
39    18    48    1
40    18    49    1
41    19    25    ar
42    19    20    ar
43    20    21    ar
44    20    50    1
45    21    22    ar
46    21    51    1
47    22    23    1
48    22    24    ar
49    24    25    ar
50    24    52    1
51    25    26    1
52    27    29    1
53    27    28    1
54    27    53    1
55    28    29    1
56    28    54    1
57    28    55    1
58    29    56    1
59    29    57    1
@<TRIPOS>SUBSTRUCTURE
1   ZINC000532153088 1     RESIDUE    1   A     ZIN   1
@<TRIPOS>MOLECULE
ZINC001018118384
46	48	1	0	0
SMALL
USER_CHARGES
@<TRIPOS>ATOM
1      C1     -1.2297    1.3537    0.0670 C.3      1 ZINC001018118384   -0.0700
2      C2     -0.8720   -0.1101    0.0461 C.2      1 ZINC001018118384    0.2200
3      N3     -0.7687   -0.8478   -1.0214 N.2      1 ZINC001018118384   -0.4600
4      C4     -0.4320   -2.1100   -0.6519 C.2      1 ZINC001018118384   -0.0700
5      C5     -0.2167   -3.2537   -1.5552 C.2      1 ZINC001018118384    0.6100
6      O6     -0.0396   -4.3661   -1.0964 O.2      1 ZINC001018118384   -0.5400
7      N7     -0.2159   -3.0673   -2.8900 N.am     1 ZINC001018118384   -0.5900
8      C8     -0.2561   -1.7123   -3.4567 C.3      1 ZINC001018118384    0.0700
9      C9      0.9118   -1.5522   -4.4350 C.3      1 ZINC001018118384    0.1300
10     H10     0.8383   -0.5860   -4.9342 H        1 ZINC001018118384    0.1100
11     N11     2.1778   -1.6287   -3.7018 N.am     1 ZINC001018118384   -0.7000
12     C12     2.6856   -0.5257   -3.1170 C.2      1 ZINC001018118384    0.6000
13     O13     2.0935    0.5321   -3.1979 O.2      1 ZINC001018118384   -0.4900
14     C14     3.9664   -0.6031   -2.3753 C.2      1 ZINC001018118384    0.0300
15     C15     4.5924    0.4236   -1.7332 C.2      1 ZINC001018118384   -0.2300
16     C16     5.7653   -0.1732   -1.1910 C.2      1 ZINC001018118384    0.4800
17     O17     6.6323    0.3743   -0.5303 O.2      1 ZINC001018118384   -0.5200
18     N18     5.7186   -1.4695   -1.5586 N.am     1 ZINC001018118384   -0.4500
19     C19     6.7338   -2.4682   -1.2147 C.3      1 ZINC001018118384    0.1100
20     O20     4.7229   -1.6981   -2.2056 O.3      1 ZINC001018118384    0.0000
21     C21     0.8560   -2.6713   -5.4774 C.3      1 ZINC001018118384   -0.1300
22     C22     0.9920   -4.0270   -4.7805 C.3      1 ZINC001018118384   -0.1300
23     C23    -0.1688   -4.2150   -3.8061 C.3      1 ZINC001018118384    0.1400
24     H24    -1.1057   -4.2714   -4.3604 H        1 ZINC001018118384    0.0700
25     C25     0.0341   -5.5054   -3.0094 C.3      1 ZINC001018118384   -0.1400
26     C26    -0.3289   -2.1263    0.7084 C.2      1 ZINC001018118384    0.0400
27     N27    -0.5995   -0.8712    1.1379 N.pl3    1 ZINC001018118384   -0.5600
28     H28    -0.3208    1.9509   -0.0060 H        1 ZINC001018118384    0.0900
29     H29    -1.8820    1.5804   -0.7763 H        1 ZINC001018118384    0.1000
30     H30    -1.7449    1.5885    0.9984 H        1 ZINC001018118384    0.0800
31     H31    -1.1981   -1.5649   -3.9849 H        1 ZINC001018118384    0.0800
32     H32    -0.1652   -0.9785   -2.6558 H        1 ZINC001018118384    0.1500
33     H33     2.6506   -2.4732   -3.6372 H        1 ZINC001018118384    0.4100
34     H34     4.2725    1.4521   -1.6546 H        1 ZINC001018118384    0.1900
35     H35     6.4719   -2.9415   -0.2684 H        1 ZINC001018118384    0.0800
36     H36     6.7800   -3.2242   -1.9986 H        1 ZINC001018118384    0.0900
37     H37     7.7048   -1.9819   -1.1213 H        1 ZINC001018118384    0.1100
38     H38    -0.0965   -2.6284   -6.0055 H        1 ZINC001018118384    0.0900
39     H39     1.6717   -2.5454   -6.1893 H        1 ZINC001018118384    0.0800
40     H40     0.9757   -4.8224   -5.5257 H        1 ZINC001018118384    0.0800
41     H41     1.9332   -4.0613   -4.2319 H        1 ZINC001018118384    0.0600
42     H42     0.9785   -5.4531   -2.4677 H        1 ZINC001018118384    0.0700
43     H43    -0.7850   -5.6274   -2.3007 H        1 ZINC001018118384    0.0800
44     H44     0.0534   -6.3548   -3.6922 H        1 ZINC001018118384    0.0400
45     H45    -0.0754   -2.9764    1.3243 H        1 ZINC001018118384    0.1900
46     H46    -0.6045   -0.5710    2.0602 H        1 ZINC001018118384    0.4300
@<TRIPOS>BOND
1     1     2     1
2     1     28    1
3     1     29    1
4     1     30    1
5     2     27    1
6     2     3     2
7     3     4     1
8     4     5     1
9     4     26    2
10    5     6     2
11    5     7     am
12    7     23    1
13    7     8     1
14    8     9     1
15    8     31    1
16    8     32    1
17    9     10    1
18    9     11    1
19    9     21    1
20    11    12    am
21    11    33    1
22    12    13    2
23    12    14    1
24    14    20    1
25    14    15    2
26    15    16    1
27    15    34    1
28    16    17    2
29    16    18    am
30    18    19    1
31    18    20    1
32    19    35    1
33    19    36    1
34    19    37    1
35    21    22    1
36    21    38    1
37    21    39    1
38    22    23    1
39    22    40    1
40    22    41    1
41    23    24    1
42    23    25    1
43    25    42    1
44    25    43    1
45    25    44    1
46    26    27    1
47    26    45    1
48    27    46    1
@<TRIPOS>SUBSTRUCTURE
1   ZINC001018118384 1     RESIDUE    1   A     ZIN   1
@<TRIPOS>MOLECULE
ZINC001091652821
47	50	1	0	0
SMALL
USER_CHARGES
@<TRIPOS>ATOM
1      C1      0.3093    1.4847   -0.0167 C.3      1 ZINC001091652821   -0.1000
2      C2      0.1255   -0.0110   -0.0084 C.2      1 ZINC001091652821   -0.1200
3      C3     -0.1370   -0.7084   -1.1198 C.2      1 ZINC001091652821   -0.2400
4      S4     -0.2883   -2.3724   -0.7747 S.3      1 ZINC001091652821    0.2100
5      C5      0.0171   -2.0949    0.9345 C.2      1 ZINC001091652821   -0.2700
6      C6      0.0532   -3.1307    1.9711 C.2      1 ZINC001091652821    0.6100
7      O7      0.1610   -2.8164    3.1419 O.2      1 ZINC001091652821   -0.5200
8      N8     -0.0329   -4.4311    1.6275 N.am     1 ZINC001091652821   -0.6200
9      C9     -0.0408   -4.9818    0.2624 C.3      1 ZINC001091652821    0.0900
10     C10     0.6266   -6.3643    0.3480 C.3      1 ZINC001091652821   -0.0900
11     H11     0.1323   -7.0973   -0.2896 H        1 ZINC001091652821    0.1100
12     C12     2.1260   -6.2222    0.0126 C.3      1 ZINC001091652821    0.0400
13     N13     2.8199   -7.0529    1.0297 N.3      1 ZINC001091652821   -0.5000
14     C14     4.2263   -6.6516    1.1668 C.3      1 ZINC001091652821    0.1200
15     C15     4.9842   -7.0448   -0.0749 C.2      1 ZINC001091652821    0.0000
16     C16     5.2366   -6.2562   -1.1327 C.2      1 ZINC001091652821   -0.0800
17     O17     5.9365   -6.9923   -2.0181 O.3      1 ZINC001091652821   -0.2000
18     C18     6.1019   -8.2138   -1.4935 C.2      1 ZINC001091652821    0.1900
19     C19     6.8303   -9.3590   -2.1485 C.3      1 ZINC001091652821   -0.0600
20     N20     5.5348   -8.2467   -0.3214 N.2      1 ZINC001091652821   -0.4700
21     C21     2.0683   -6.7959    2.2847 C.3      1 ZINC001091652821    0.0400
22     C22     0.5635   -6.7561    1.8469 C.3      1 ZINC001091652821   -0.0700
23     C23    -0.1425   -8.0905    2.0955 C.3      1 ZINC001091652821   -0.1300
24     C24    -0.1310   -5.5786    2.5443 C.3      1 ZINC001091652821    0.1200
25     C25     0.2211   -0.7595    1.1408 C.2      1 ZINC001091652821   -0.0500
26     H26     1.3603    1.7207   -0.1836 H        1 ZINC001091652821    0.0700
27     H27    -0.2920    1.9202   -0.8148 H        1 ZINC001091652821    0.0700
28     H28    -0.0074    1.8951    0.9421 H        1 ZINC001091652821    0.0700
29     H29    -0.2399   -0.2756   -2.1040 H        1 ZINC001091652821    0.1700
30     H30    -1.0659   -5.0827   -0.0943 H        1 ZINC001091652821    0.0800
31     H31     0.5261   -4.3335   -0.4057 H        1 ZINC001091652821    0.0800
32     H32     2.3287   -6.6006   -0.9893 H        1 ZINC001091652821    0.0800
33     H33     2.4370   -5.1809    0.0964 H        1 ZINC001091652821    0.0500
34     H34     4.2845   -5.5715    1.3012 H        1 ZINC001091652821    0.0500
35     H35     4.6635   -7.1495    2.0323 H        1 ZINC001091652821    0.1000
36     H36     4.9350   -5.2259   -1.2512 H        1 ZINC001091652821    0.2100
37     H37     7.2054   -9.0420   -3.1217 H        1 ZINC001091652821    0.0900
38     H38     7.6660   -9.6655   -1.5194 H        1 ZINC001091652821    0.1000
39     H39     6.1465  -10.1979   -2.2784 H        1 ZINC001091652821    0.1000
40     H40     2.2274   -7.6067    2.9956 H        1 ZINC001091652821    0.0900
41     H41     2.3702   -5.8433    2.7200 H        1 ZINC001091652821    0.0500
42     H42    -0.1197   -8.3206    3.1607 H        1 ZINC001091652821    0.0600
43     H43    -1.1775   -8.0218    1.7607 H        1 ZINC001091652821    0.0600
44     H44     0.3668   -8.8796    1.5423 H        1 ZINC001091652821    0.0700
45     H45     0.3840   -5.3382    3.4745 H        1 ZINC001091652821    0.0900
46     H46    -1.1733   -5.8255    2.7463 H        1 ZINC001091652821    0.0800
47     H47     0.4289   -0.3336    2.1112 H        1 ZINC001091652821    0.1500
@<TRIPOS>BOND
1     1     2     1
2     1     26    1
3     1     27    1
4     1     28    1
5     2     25    1
6     2     3     2
7     3     4     1
8     3     29    1
9     4     5     1
10    5     6     1
11    5     25    2
12    6     7     2
13    6     8     am
14    8     24    1
15    8     9     1
16    9     10    1
17    9     30    1
18    9     31    1
19    10    11    1
20    10    22    1
21    10    12    1
22    12    13    1
23    12    32    1
24    12    33    1
25    13    14    1
26    13    21    1
27    14    15    1
28    14    34    1
29    14    35    1
30    15    20    1
31    15    16    2
32    16    17    1
33    16    36    1
34    17    18    1
35    18    19    1
36    18    20    2
37    19    37    1
38    19    38    1
39    19    39    1
40    21    22    1
41    21    40    1
42    21    41    1
43    22    23    1
44    22    24    1
45    23    42    1
46    23    43    1
47    23    44    1
48    24    45    1
49    24    46    1
50    25    47    1
@<TRIPOS>SUBSTRUCTURE
1   ZINC001091652821 1     RESIDUE    1   A     ZIN   1
@<TRIPOS>MOLECULE
ZINC000518242403
49	52	1	0	0
SMALL
USER_CHARGES
@<TRIPOS>ATOM
1      C1     -0.0154    1.5049    0.0263 C.3      1 ZINC000518242403   -0.1800
2      C2     -0.0005   -0.0249    0.0077 C.3      1 ZINC000518242403    0.1000
3      N3      0.6857   -0.4919   -1.1994 N.am     1 ZINC000518242403   -0.6200
4      C4      2.1323   -0.7223   -1.1770 C.3      1 ZINC000518242403    0.1500
5      C5      2.4119   -2.1697   -0.7675 C.3      1 ZINC000518242403    0.0300
6      H6      1.9489   -2.8499   -1.4824 H        1 ZINC000518242403    0.0900
7      C7      3.9267   -2.4130   -0.7283 C.3      1 ZINC000518242403    0.0300
8      O8      4.1527   -3.7693   -0.3293 O.3      1 ZINC000518242403   -0.3000
9      C9      3.4378   -4.2201    0.7375 C.ar     1 ZINC000518242403    0.0500
10     C10     3.8509   -5.3672    1.3980 C.ar     1 ZINC000518242403   -0.1100
11     C11     3.1332   -5.8391    2.4812 C.ar     1 ZINC000518242403   -0.1200
12     C12     2.0025   -5.1692    2.9089 C.ar     1 ZINC000518242403   -0.1200
13     C13     1.5861   -4.0241    2.2558 C.ar     1 ZINC000518242403   -0.1100
14     C14     2.3020   -3.5447    1.1693 C.ar     1 ZINC000518242403    0.0500
15     O15     1.8838   -2.4119    0.5411 O.3      1 ZINC000518242403   -0.3000
16     C16    -0.0139   -0.7097   -2.3306 C.2      1 ZINC000518242403    0.7100
17     O17     0.5556   -1.0974   -3.3326 O.2      1 ZINC000518242403   -0.5700
18     N18    -1.3447   -0.4978   -2.3513 N.am     1 ZINC000518242403   -0.6800
19     C19    -2.0573   -0.6334   -3.5503 C.ar     1 ZINC000518242403    0.1700
20     C20    -1.6815   -1.5970   -4.4758 C.ar     1 ZINC000518242403   -0.1000
21     C21    -2.3864   -1.7309   -5.6605 C.ar     1 ZINC000518242403    0.0500
22     C22    -3.4716   -0.8975   -5.9205 C.ar     1 ZINC000518242403    0.0200
23     C23    -3.8430    0.0636   -4.9943 C.ar     1 ZINC000518242403   -0.0800
24     C24    -3.1428    0.1924   -3.8100 C.ar     1 ZINC000518242403   -0.1000
25     C25    -3.5497    1.2390   -2.8049 C.3      1 ZINC000518242403   -0.1100
26     O26    -3.9915   -1.2265   -7.1401 O.3      1 ZINC000518242403   -0.3100
27     C27    -2.9662   -1.9913   -7.8012 C.3      1 ZINC000518242403    0.2100
28     O28    -2.2265   -2.5815   -6.7161 O.3      1 ZINC000518242403   -0.3100
29     H29     1.0087    1.8783    0.0230 H        1 ZINC000518242403    0.0600
30     H30    -0.5395    1.8739   -0.8553 H        1 ZINC000518242403    0.0600
31     H31    -0.5259    1.8524    0.9245 H        1 ZINC000518242403    0.0700
32     H32     0.5237   -0.3938    0.8894 H        1 ZINC000518242403    0.1000
33     H33    -1.0245   -0.3983    0.0111 H        1 ZINC000518242403    0.0700
34     H34     2.5448   -0.5393   -2.1692 H        1 ZINC000518242403    0.1100
35     H35     2.5969   -0.0456   -0.4598 H        1 ZINC000518242403    0.0900
36     H36     4.3517   -2.2452   -1.7179 H        1 ZINC000518242403    0.1300
37     H37     4.3891   -1.7365   -0.0095 H        1 ZINC000518242403    0.0800
38     H38     4.7340   -5.8926    1.0657 H        1 ZINC000518242403    0.1300
39     H39     3.4568   -6.7326    2.9943 H        1 ZINC000518242403    0.1300
40     H40     1.4432   -5.5410    3.7545 H        1 ZINC000518242403    0.1300
41     H41     0.7022   -3.5025    2.5919 H        1 ZINC000518242403    0.1300
42     H42    -1.8093   -0.2514   -1.5362 H        1 ZINC000518242403    0.4100
43     H43    -0.8395   -2.2420   -4.2724 H        1 ZINC000518242403    0.1500
44     H44    -4.6845    0.7098   -5.1959 H        1 ZINC000518242403    0.1400
45     H45    -4.2801    0.8159   -2.1153 H        1 ZINC000518242403    0.0800
46     H46    -2.6725    1.5684   -2.2480 H        1 ZINC000518242403    0.0700
47     H47    -3.9907    2.0896   -3.3245 H        1 ZINC000518242403    0.0800
48     H48    -3.4096   -2.7650   -8.4280 H        1 ZINC000518242403    0.1300
49     H49    -2.3236   -1.3393   -8.3929 H        1 ZINC000518242403    0.0900
@<TRIPOS>BOND
1     1     2     1
2     1     29    1
3     1     30    1
4     1     31    1
5     2     3     1
6     2     32    1
7     2     33    1
8     3     4     1
9     3     16    am
10    4     5     1
11    4     34    1
12    4     35    1
13    5     6     1
14    5     15    1
15    5     7     1
16    7     8     1
17    7     36    1
18    7     37    1
19    8     9     1
20    9     14    ar
21    9     10    ar
22    10    11    ar
23    10    38    1
24    11    12    ar
25    11    39    1
26    12    13    ar
27    12    40    1
28    13    14    ar
29    13    41    1
30    14    15    1
31    16    17    2
32    16    18    am
33    18    19    1
34    18    42    1
35    19    24    ar
36    19    20    ar
37    20    21    ar
38    20    43    1
39    21    28    1
40    21    22    ar
41    22    23    ar
42    22    26    1
43    23    24    ar
44    23    44    1
45    24    25    1
46    25    45    1
47    25    46    1
48    25    47    1
49    26    27    1
50    27    28    1
51    27    48    1
52    27    49    1
@<TRIPOS>SUBSTRUCTURE
1   ZINC000518242403 1     RESIDUE    1   A     ZIN   1
@<TRIPOS>MOLECULE
ZINC000417533280
53	54	1	0	0
SMALL
USER_CHARGES
@<TRIPOS>ATOM
1      C1     -0.9320    0.2814    1.5672 C.3      1 ZINC000417533280   -0.1600
2      C2     -0.6245   -1.2038    1.3661 C.3      1 ZINC000417533280   -0.1200
3      C3     -0.0670   -1.4232   -0.0417 C.3      1 ZINC000417533280   -0.1200
4      C4      0.2405   -2.9085   -0.2427 C.3      1 ZINC000417533280   -0.1300
5      C5      0.7980   -3.1279   -1.6505 C.3      1 ZINC000417533280    0.1200
6      N6      1.0924   -4.5500   -1.8430 N.am     1 ZINC000417533280   -0.7300
7      C7      1.5960   -4.9811   -3.0164 C.2      1 ZINC000417533280    0.5200
8      O8      1.8055   -4.1917   -3.9130 O.2      1 ZINC000417533280   -0.5400
9      C9      1.8989   -6.4441   -3.2144 C.3      1 ZINC000417533280   -0.1100
10     C10     0.6151   -7.2587   -3.0398 C.3      1 ZINC000417533280   -0.1300
11     C11     0.9332   -8.7478   -3.2075 C.3      1 ZINC000417533280    0.1300
12     N12     1.6023   -8.9457   -4.5005 N.am     1 ZINC000417533280   -0.6200
13     C13     1.1302   -9.8439   -5.3876 C.2      1 ZINC000417533280    0.7100
14     O14     0.1979  -10.5638   -5.0861 O.2      1 ZINC000417533280   -0.5600
15     N15     1.6915   -9.9440   -6.6088 N.am     1 ZINC000417533280   -0.6800
16     C16     1.1296  -10.7933   -7.5703 C.ar     1 ZINC000417533280    0.1900
17     C17    -0.1988  -11.1818   -7.4629 C.ar     1 ZINC000417533280   -0.1100
18     C18    -0.7526  -12.0193   -8.4122 C.ar     1 ZINC000417533280   -0.1100
19     C19     0.0158  -12.4718   -9.4704 C.ar     1 ZINC000417533280    0.0500
20     F20    -0.5279  -13.2903  -10.3976 F        1 ZINC000417533280   -0.1300
21     C21     1.3434  -12.0854   -9.5805 C.ar     1 ZINC000417533280    0.0900
22     F22     2.0922  -12.5279  -10.6142 F        1 ZINC000417533280   -0.1200
23     C23     1.8990  -11.2430   -8.6350 C.ar     1 ZINC000417533280   -0.1300
24     C24     3.3412  -10.8223   -8.7541 C.3      1 ZINC000417533280   -0.1200
25     C25     2.7955   -8.1456   -4.8083 C.3      1 ZINC000417533280    0.1100
26     C26     2.4565   -6.6632   -4.6226 C.3      1 ZINC000417533280   -0.1200
27     H27    -0.0175    0.8617    1.4440 H        1 ZINC000417533280    0.0500
28     H28    -1.6683    0.6030    0.8306 H        1 ZINC000417533280    0.0500
29     H29    -1.3292    0.4377    2.5701 H        1 ZINC000417533280    0.0500
30     H30     0.1118   -1.5254    2.1027 H        1 ZINC000417533280    0.0600
31     H31    -1.5390   -1.7841    1.4893 H        1 ZINC000417533280    0.0600
32     H32    -0.8033   -1.1017   -0.7782 H        1 ZINC000417533280    0.0700
33     H33     0.8475   -0.8430   -0.1648 H        1 ZINC000417533280    0.0700
34     H34     0.9768   -3.2300    0.4939 H        1 ZINC000417533280    0.0700
35     H35    -0.6740   -3.4887   -0.1195 H        1 ZINC000417533280    0.0700
36     H36     0.0617   -2.8063   -2.3871 H        1 ZINC000417533280    0.0700
37     H37     1.7125   -2.5476   -1.7736 H        1 ZINC000417533280    0.0700
38     H38     0.9249   -5.1814   -1.1259 H        1 ZINC000417533280    0.4000
39     H39     2.6355   -6.7653   -2.4781 H        1 ZINC000417533280    0.1000
40     H40     0.2059   -7.0839   -2.0448 H        1 ZINC000417533280    0.0800
41     H41    -0.1134   -6.9553   -3.7917 H        1 ZINC000417533280    0.0800
42     H42     1.5911   -9.0739   -2.4019 H        1 ZINC000417533280    0.0700
43     H43     0.0084   -9.3241   -3.1826 H        1 ZINC000417533280    0.1000
44     H44     2.4846   -9.4278   -6.8218 H        1 ZINC000417533280    0.4100
45     H45    -0.7993  -10.8296   -6.6372 H        1 ZINC000417533280    0.1700
46     H46    -1.7860  -12.3215   -8.3279 H        1 ZINC000417533280    0.1500
47     H47     3.4052   -9.9065   -9.3417 H        1 ZINC000417533280    0.0800
48     H48     3.7514  -10.6455   -7.7598 H        1 ZINC000417533280    0.0700
49     H49     3.9101  -11.6107   -9.2469 H        1 ZINC000417533280    0.0800
50     H50     3.6053   -8.4226   -4.1333 H        1 ZINC000417533280    0.0800
51     H51     3.0994   -8.3246   -5.8397 H        1 ZINC000417533280    0.0800
52     H52     1.7107   -6.3655   -5.3597 H        1 ZINC000417533280    0.0800
53     H53     3.3579   -6.0647   -4.7542 H        1 ZINC000417533280    0.0900
@<TRIPOS>BOND
1     1     2     1
2     1     27    1
3     1     28    1
4     1     29    1
5     2     3     1
6     2     30    1
7     2     31    1
8     3     4     1
9     3     32    1
10    3     33    1
11    4     5     1
12    4     34    1
13    4     35    1
14    5     6     1
15    5     36    1
16    5     37    1
17    6     7     am
18    6     38    1
19    7     8     2
20    7     9     1
21    9     26    1
22    9     10    1
23    9     39    1
24    10    11    1
25    10    40    1
26    10    41    1
27    11    12    1
28    11    42    1
29    11    43    1
30    12    13    am
31    12    25    1
32    13    14    2
33    13    15    am
34    15    16    1
35    15    44    1
36    16    23    ar
37    16    17    ar
38    17    18    ar
39    17    45    1
40    18    19    ar
41    18    46    1
42    19    20    1
43    19    21    ar
44    21    22    1
45    21    23    ar
46    23    24    1
47    24    47    1
48    24    48    1
49    24    49    1
50    25    26    1
51    25    50    1
52    25    51    1
53    26    52    1
54    26    53    1
@<TRIPOS>SUBSTRUCTURE
1   ZINC000417533280 1     RESIDUE    1   A     ZIN   1
@<TRIPOS>MOLECULE
ZINC000077537368
54	56	1	0	0
SMALL
USER_CHARGES
@<TRIPOS>ATOM
1      C1     -0.4791   -3.2504    1.4437 C.3      1 ZINC000077537368    0.0800
2      N2     -0.1667   -2.0704    0.6337 N.pl3    1 ZINC000077537368   -0.2600
3      N3      0.0283   -2.0746   -0.6359 N.2      1 ZINC000077537368   -0.2700
4      C4      0.2874   -0.8686   -1.0729 C.2      1 ZINC000077537368    0.0400
5      C5      0.5684   -0.4843   -2.5027 C.3      1 ZINC000077537368    0.0200
6      C6      2.0646   -0.2137   -2.6735 C.3      1 ZINC000077537368   -0.1400
7      C7      0.1476   -1.6263   -3.4299 C.3      1 ZINC000077537368   -0.1400
8      C8     -0.2217    0.7773   -2.8565 C.3      1 ZINC000077537368   -0.1400
9      C9      0.2566   -0.0007    0.0210 C.2      1 ZINC000077537368   -0.2000
10     C10    -0.0442   -0.7969    1.1124 C.2      1 ZINC000077537368   -0.0400
11     C11    -0.1932   -0.3605    2.5099 C.2      1 ZINC000077537368    0.5900
12     O12    -0.1371   -1.1757    3.4108 O.2      1 ZINC000077537368   -0.5400
13     N13    -0.3919    0.9425    2.7914 N.am     1 ZINC000077537368   -0.6000
14     C14    -0.6072    1.9228    1.7163 C.3      1 ZINC000077537368    0.0800
15     C15    -1.8710    2.7277    2.0375 C.3      1 ZINC000077537368    0.0400
16     N16    -1.7540    3.2998    3.3855 N.3      1 ZINC000077537368   -0.5300
17     C17    -2.8657    4.2181    3.6659 C.3      1 ZINC000077537368    0.0900
18     C18    -2.5881    4.9676    4.9435 C.ar     1 ZINC000077537368   -0.0500
19     C19    -3.0100    4.4458    6.1536 C.ar     1 ZINC000077537368   -0.1200
20     C20    -2.7595    5.1268    7.3268 C.ar     1 ZINC000077537368   -0.0700
21     C21    -2.0782    6.3451    7.2913 C.ar     1 ZINC000077537368   -0.0300
22     C22    -1.8143    7.0572    8.5053 C.1      1 ZINC000077537368    0.2500
23     N23    -1.6050    7.6222    9.4684 N.1      1 ZINC000077537368   -0.4100
24     C24    -1.6549    6.8656    6.0667 C.ar     1 ZINC000077537368   -0.0700
25     C25    -1.9074    6.1715    4.9016 C.ar     1 ZINC000077537368   -0.1000
26     C26    -1.6710    2.2464    4.4060 C.3      1 ZINC000077537368    0.0400
27     C27    -0.4051    1.4208    4.1822 C.3      1 ZINC000077537368    0.1200
28     H28    -1.5589   -3.3288    1.5702 H        1 ZINC000077537368    0.0800
29     H29    -0.1062   -4.1439    0.9430 H        1 ZINC000077537368    0.1000
30     H30    -0.0047   -3.1566    2.4205 H        1 ZINC000077537368    0.1100
31     H31     2.6274   -1.1125   -2.4214 H        1 ZINC000077537368    0.0600
32     H32     2.2678    0.0642   -3.7077 H        1 ZINC000077537368    0.0600
33     H33     2.3643    0.5999   -2.0130 H        1 ZINC000077537368    0.0600
34     H34    -0.9183   -1.8191   -3.3082 H        1 ZINC000077537368    0.0600
35     H35     0.3508   -1.3484   -4.4641 H        1 ZINC000077537368    0.0600
36     H36     0.7104   -2.5251   -3.1778 H        1 ZINC000077537368    0.0600
37     H37     0.0781    1.5909   -2.1960 H        1 ZINC000077537368    0.0600
38     H38    -0.0184    1.0552   -3.8907 H        1 ZINC000077537368    0.0600
39     H39    -1.2876    0.5845   -2.7349 H        1 ZINC000077537368    0.0600
40     H40     0.4275    1.0657    0.0158 H        1 ZINC000077537368    0.1700
41     H41     0.2492    2.5944    1.6562 H        1 ZINC000077537368    0.0800
42     H42    -0.7357    1.4028    0.7670 H        1 ZINC000077537368    0.1200
43     H43    -1.9851    3.5313    1.3100 H        1 ZINC000077537368    0.0900
44     H44    -2.7406    2.0718    1.9950 H        1 ZINC000077537368    0.0400
45     H45    -2.9679    4.9266    2.8440 H        1 ZINC000077537368    0.0900
46     H46    -3.7892    3.6489    3.7720 H        1 ZINC000077537368    0.0500
47     H47    -3.5369    3.5034    6.1796 H        1 ZINC000077537368    0.1300
48     H48    -3.0900    4.7188    8.2706 H        1 ZINC000077537368    0.1300
49     H49    -1.1274    7.8073    6.0322 H        1 ZINC000077537368    0.1300
50     H50    -1.5803    6.5727    3.9538 H        1 ZINC000077537368    0.1400
51     H51    -1.6400    2.7010    5.3962 H        1 ZINC000077537368    0.1000
52     H52    -2.5433    1.5973    4.3305 H        1 ZINC000077537368    0.0400
53     H53    -0.3975    0.5702    4.8637 H        1 ZINC000077537368    0.1000
54     H54     0.4731    2.0421    4.3578 H        1 ZINC000077537368    0.0800
@<TRIPOS>BOND
1     1     2     1
2     1     28    1
3     1     29    1
4     1     30    1
5     2     10    1
6     2     3     1
7     3     4     2
8     4     5     1
9     4     9     1
10    5     6     1
11    5     7     1
12    5     8     1
13    6     31    1
14    6     32    1
15    6     33    1
16    7     34    1
17    7     35    1
18    7     36    1
19    8     37    1
20    8     38    1
21    8     39    1
22    9     10    2
23    9     40    1
24    10    11    1
25    11    12    2
26    11    13    am
27    13    27    1
28    13    14    1
29    14    15    1
30    14    41    1
31    14    42    1
32    15    16    1
33    15    43    1
34    15    44    1
35    16    17    1
36    16    26    1
37    17    18    1
38    17    45    1
39    17    46    1
40    18    25    ar
41    18    19    ar
42    19    20    ar
43    19    47    1
44    20    21    ar
45    20    48    1
46    21    22    1
47    21    24    ar
48    22    23    3
49    24    25    ar
50    24    49    1
51    25    50    1
52    26    27    1
53    26    51    1
54    26    52    1
55    27    53    1
56    27    54    1
@<TRIPOS>SUBSTRUCTURE
1   ZINC000077537368 1     RESIDUE    1   A     ZIN   1
@<TRIPOS>MOLECULE
ZINC000966038509
52	54	1	0	0
SMALL
USER_CHARGES
@<TRIPOS>ATOM
1      C1      0.3280    3.5588   -0.5541 C.3      1 ZINC000966038509   -0.1200
2      C2      0.5163    2.2438   -1.2657 C.ar     1 ZINC000966038509   -0.0100
3      C3      0.6293    2.2119   -2.6390 C.ar     1 ZINC000966038509   -0.1600
4      C4      0.8020    1.0026   -3.2950 C.ar     1 ZINC000966038509    0.1300
5      F5      0.9118    0.9769   -4.6413 F        1 ZINC000966038509   -0.1300
6      C6      0.8630   -0.1803   -2.5743 C.ar     1 ZINC000966038509   -0.1600
7      C7      0.7511   -0.1598   -1.2006 C.ar     1 ZINC000966038509   -0.0100
8      C8      0.8170   -1.4464   -0.4186 C.3      1 ZINC000966038509   -0.1200
9      C9      0.5823    1.0559   -0.5344 C.ar     1 ZINC000966038509   -0.1500
10     C10     0.4618    1.0840    0.9376 C.2      1 ZINC000966038509    0.5700
11     O11     1.4570    1.1948    1.6270 O.2      1 ZINC000966038509   -0.5200
12     N12    -0.7515    0.9868    1.5165 N.am     1 ZINC000966038509   -0.7100
13     C13    -0.8709    1.0146    2.9763 C.3      1 ZINC000966038509    0.1300
14     H14    -0.0147    0.5301    3.4456 H        1 ZINC000966038509    0.1200
15     C15    -1.0394    2.4656    3.4921 C.3      1 ZINC000966038509    0.0900
16     N16    -2.4684    2.7717    3.2976 N.am     1 ZINC000966038509   -0.6200
17     C17    -2.9963    4.0044    3.1625 C.2      1 ZINC000966038509    0.5400
18     O18    -2.2909    4.9831    3.2865 O.2      1 ZINC000966038509   -0.5300
19     C19    -4.4631    4.1665    2.8573 C.3      1 ZINC000966038509   -0.1100
20     C20    -5.2540    4.4849    4.1505 C.3      1 ZINC000966038509   -0.1100
21     C21    -6.5207    5.1941    3.6107 C.3      1 ZINC000966038509   -0.1200
22     C22    -6.0029    6.0526    2.4381 C.3      1 ZINC000966038509   -0.1200
23     C23    -4.6947    5.3992    1.9591 C.3      1 ZINC000966038509   -0.1100
24     C24    -3.2220    1.5095    3.2747 C.3      1 ZINC000966038509    0.1000
25     C25    -2.2010    0.3625    3.4380 C.3      1 ZINC000966038509   -0.1100
26     H26    -2.1360    0.0495    4.4801 H        1 ZINC000966038509    0.1000
27     C27    -2.5687   -0.8213    2.5412 C.3      1 ZINC000966038509   -0.1400
28     H28     1.3021    3.9800   -0.3053 H        1 ZINC000966038509    0.0800
29     H29    -0.2114    4.2490   -1.2028 H        1 ZINC000966038509    0.0800
30     H30    -0.2429    3.3985    0.3605 H        1 ZINC000966038509    0.0700
31     H31     0.5828    3.1304   -3.2052 H        1 ZINC000966038509    0.1400
32     H32     0.9980   -1.1195   -3.0901 H        1 ZINC000966038509    0.1400
33     H33     1.8522   -1.6548   -0.1486 H        1 ZINC000966038509    0.0800
34     H34     0.2172   -1.3524    0.4867 H        1 ZINC000966038509    0.0700
35     H35     0.4291   -2.2624   -1.0283 H        1 ZINC000966038509    0.0800
36     H36    -1.5455    0.8983    0.9665 H        1 ZINC000966038509    0.4000
37     H37    -0.7790    2.5252    4.5488 H        1 ZINC000966038509    0.0800
38     H38    -0.4223    3.1494    2.9093 H        1 ZINC000966038509    0.0800
39     H39    -4.8542    3.2679    2.3801 H        1 ZINC000966038509    0.0900
40     H40    -5.5193    3.5679    4.6767 H        1 ZINC000966038509    0.0700
41     H41    -4.6840    5.1516    4.7976 H        1 ZINC000966038509    0.0700
42     H42    -7.2461    4.4619    3.2561 H        1 ZINC000966038509    0.0700
43     H43    -6.9613    5.8268    4.3812 H        1 ZINC000966038509    0.0700
44     H44    -6.7341    6.0605    1.6298 H        1 ZINC000966038509    0.0700
45     H45    -5.8096    7.0703    2.7773 H        1 ZINC000966038509    0.0700
46     H46    -3.8665    6.0998    2.0659 H        1 ZINC000966038509    0.0800
47     H47    -4.7910    5.0900    0.9184 H        1 ZINC000966038509    0.0700
48     H48    -3.9366    1.4895    4.0975 H        1 ZINC000966038509    0.0800
49     H49    -3.7452    1.4074    2.3240 H        1 ZINC000966038509    0.0700
50     H50    -2.5990   -0.4940    1.5019 H        1 ZINC000966038509    0.0600
51     H51    -1.8219   -1.6074    2.6529 H        1 ZINC000966038509    0.0700
52     H52    -3.5469   -1.2057    2.8298 H        1 ZINC000966038509    0.0700
@<TRIPOS>BOND
1     1     2     1
2     1     28    1
3     1     29    1
4     1     30    1
5     2     9     ar
6     2     3     ar
7     3     4     ar
8     3     31    1
9     4     5     1
10    4     6     ar
11    6     7     ar
12    6     32    1
13    7     8     1
14    7     9     ar
15    8     33    1
16    8     34    1
17    8     35    1
18    9     10    1
19    10    11    2
20    10    12    am
21    12    13    1
22    12    36    1
23    13    14    1
24    13    25    1
25    13    15    1
26    15    16    1
27    15    37    1
28    15    38    1
29    16    17    am
30    16    24    1
31    17    18    2
32    17    19    1
33    19    23    1
34    19    20    1
35    19    39    1
36    20    21    1
37    20    40    1
38    20    41    1
39    21    22    1
40    21    42    1
41    21    43    1
42    22    23    1
43    22    44    1
44    22    45    1
45    23    46    1
46    23    47    1
47    24    25    1
48    24    48    1
49    24    49    1
50    25    26    1
51    25    27    1
52    27    50    1
53    27    51    1
54    27    52    1
@<TRIPOS>SUBSTRUCTURE
1   ZINC000966038509 1     RESIDUE    1   A     ZIN   1
@<TRIPOS>MOLECULE
ZINC000521663393
50	53	1	0	0
SMALL
USER_CHARGES
@<TRIPOS>ATOM
1      C1     -0.0187    1.5258    0.0104 C.3      1 ZINC000521663393   -0.1500
2      C2      0.0021   -0.0041    0.0020 C.3      1 ZINC000521663393    0.0800
3      H3      0.4978   -0.3771   -0.8942 H        1 ZINC000521663393    0.0900
4      O4     -1.3313   -0.5321    0.1037 O.3      1 ZINC000521663393   -0.2900
5      C5     -1.3012   -1.6922    0.8153 C.ar     1 ZINC000521663393    0.1400
6      C6     -2.2332   -2.7243    0.8791 C.ar     1 ZINC000521663393   -0.1800
7      C7     -2.0016   -3.8217    1.6864 C.ar     1 ZINC000521663393    0.1400
8      F8     -2.9114   -4.8188    1.7432 F        1 ZINC000521663393   -0.1300
9      C9     -0.8410   -3.9040    2.4372 C.ar     1 ZINC000521663393   -0.1800
10     C10     0.0911   -2.8835    2.3743 C.ar     1 ZINC000521663393   -0.0200
11     C11    -0.1372   -1.7910    1.5676 C.ar     1 ZINC000521663393   -0.2000
12     C12     0.6894   -0.5498    1.2760 C.3      1 ZINC000521663393    0.1700
13     H13     0.6187    0.1664    2.0945 H        1 ZINC000521663393    0.1200
14     N14     2.0866   -0.9018    1.0110 N.am     1 ZINC000521663393   -0.7200
15     C15     2.9554   -1.0279    2.0337 C.2      1 ZINC000521663393    0.5300
16     O16     2.5805   -0.8501    3.1733 O.2      1 ZINC000521663393   -0.5000
17     C17     4.3926   -1.3900    1.7611 C.3      1 ZINC000521663393    0.1200
18     H18     4.4347   -2.1423    0.9735 H        1 ZINC000521663393    0.0700
19     C19     5.1458   -0.1606    1.3223 C.ar     1 ZINC000521663393   -0.0900
20     C20     5.5946    0.7475    2.2630 C.ar     1 ZINC000521663393   -0.0900
21     C21     6.2854    1.8751    1.8605 C.ar     1 ZINC000521663393   -0.1200
22     C22     6.5279    2.0945    0.5174 C.ar     1 ZINC000521663393   -0.1100
23     C23     6.0800    1.1859   -0.4232 C.ar     1 ZINC000521663393   -0.1200
24     C24     5.3928    0.0561   -0.0204 C.ar     1 ZINC000521663393   -0.1100
25     N25     5.0028   -1.9273    2.9846 N.3      1 ZINC000521663393   -0.5300
26     C26     6.4638   -1.9371    2.8820 C.3      1 ZINC000521663393    0.0500
27     C27     7.0829   -2.0698    4.2776 C.3      1 ZINC000521663393   -0.0700
28     S28     6.5558   -3.6562    4.9945 S.3      1 ZINC000521663393   -0.2700
29     C29     4.7516   -3.5872    4.7736 C.3      1 ZINC000521663393   -0.0700
30     C30     4.4535   -3.2456    3.3097 C.3      1 ZINC000521663393    0.0600
31     H31     1.0039    1.9031    0.0027 H        1 ZINC000521663393    0.0800
32     H32    -0.5459    1.8868   -0.8726 H        1 ZINC000521663393    0.0800
33     H33    -0.5289    1.8773    0.9072 H        1 ZINC000521663393    0.0700
34     H34    -3.1405   -2.6670    0.2960 H        1 ZINC000521663393    0.1400
35     H35    -0.6642   -4.7614    3.0697 H        1 ZINC000521663393    0.1400
36     H36     0.9978   -2.9437    2.9579 H        1 ZINC000521663393    0.1300
37     H37     2.3865   -1.0440    0.0996 H        1 ZINC000521663393    0.4000
38     H38     5.4051    0.5761    3.3123 H        1 ZINC000521663393    0.1300
39     H39     6.6354    2.5850    2.5954 H        1 ZINC000521663393    0.1300
40     H40     7.0671    2.9758    0.2029 H        1 ZINC000521663393    0.1200
41     H41     6.2691    1.3574   -1.4726 H        1 ZINC000521663393    0.1300
42     H42     5.0428   -0.6538   -0.7553 H        1 ZINC000521663393    0.1200
43     H43     6.7779   -2.7789    2.2649 H        1 ZINC000521663393    0.0500
44     H44     6.8009   -1.0076    2.4231 H        1 ZINC000521663393    0.1000
45     H45     8.1698   -2.0462    4.1998 H        1 ZINC000521663393    0.1100
46     H46     6.7402   -1.2504    4.9095 H        1 ZINC000521663393    0.0900
47     H47     4.3152   -4.5552    5.0200 H        1 ZINC000521663393    0.1100
48     H48     4.3325   -2.8177    5.4219 H        1 ZINC000521663393    0.1000
49     H49     3.3750   -3.2375    3.1521 H        1 ZINC000521663393    0.0800
50     H50     4.9072   -3.9965    2.6630 H        1 ZINC000521663393    0.0500
@<TRIPOS>BOND
1     1     2     1
2     1     31    1
3     1     32    1
4     1     33    1
5     2     3     1
6     2     12    1
7     2     4     1
8     4     5     1
9     5     11    ar
10    5     6     ar
11    6     7     ar
12    6     34    1
13    7     8     1
14    7     9     ar
15    9     10    ar
16    9     35    1
17    10    11    ar
18    10    36    1
19    11    12    1
20    12    13    1
21    12    14    1
22    14    15    am
23    14    37    1
24    15    16    2
25    15    17    1
26    17    18    1
27    17    19    1
28    17    25    1
29    19    24    ar
30    19    20    ar
31    20    21    ar
32    20    38    1
33    21    22    ar
34    21    39    1
35    22    23    ar
36    22    40    1
37    23    24    ar
38    23    41    1
39    24    42    1
40    25    30    1
41    25    26    1
42    26    27    1
43    26    43    1
44    26    44    1
45    27    28    1
46    27    45    1
47    27    46    1
48    28    29    1
49    29    30    1
50    29    47    1
51    29    48    1
52    30    49    1
53    30    50    1
@<TRIPOS>SUBSTRUCTURE
1   ZINC000521663393 1     RESIDUE    1   A     ZIN   1
@<TRIPOS>MOLECULE
ZINC001078110631
46	48	1	0	0
SMALL
USER_CHARGES
@<TRIPOS>ATOM
1      O1      0.0021   -0.0041    0.0020 O.2      1 ZINC001078110631   -0.5100
2      C2     -0.0144    1.2117    0.0087 C.2      1 ZINC001078110631    0.5600
3      N3      1.1435    1.9014    0.0014 N.am     1 ZINC001078110631   -0.7200
4      C4      2.4220    1.1862   -0.0147 C.3      1 ZINC001078110631    0.1500
5      H5      2.3340    0.2677   -0.5949 H        1 ZINC001078110631    0.1200
6      C6      2.8769    0.8688    1.4260 C.3      1 ZINC001078110631    0.0300
7      N7      4.3522    1.0420    1.3994 N.3      1 ZINC001078110631   -0.5000
8      C8      4.8805    1.2649    2.7519 C.3      1 ZINC001078110631    0.0300
9      C9      6.3493    1.6840    2.6630 C.3      1 ZINC001078110631    0.1300
10     N10     6.8762    1.9062    4.0118 N.am     1 ZINC001078110631   -0.6200
11     C11     6.8334    3.1933    4.7158 C.3      1 ZINC001078110631    0.1000
12     C12     7.0823    2.8579    6.2031 C.3      1 ZINC001078110631   -0.1300
13     C13     7.8748    1.5342    6.0995 C.3      1 ZINC001078110631   -0.1600
14     C14     7.4558    0.9562    4.7657 C.2      1 ZINC001078110631    0.5200
15     O15     7.6248   -0.1950    4.4235 O.2      1 ZINC001078110631   -0.5200
16     C16     4.5640    2.2363    0.5416 C.3      1 ZINC001078110631    0.0000
17     C17     3.5313    2.0849   -0.5990 C.3      1 ZINC001078110631    0.1000
18     H18     3.1245    3.0583   -0.8731 H        1 ZINC001078110631    0.0700
19     O19     4.1343    1.4621   -1.7351 O.3      1 ZINC001078110631   -0.5500
20     C20    -1.3023    1.9321    0.0187 C.ar     1 ZINC001078110631   -0.1900
21     C21    -1.3247    3.3288    0.0207 C.ar     1 ZINC001078110631   -0.0300
22     C22    -2.5299    3.9965    0.0301 C.ar     1 ZINC001078110631   -0.1700
23     C23    -3.7211    3.2857    0.0376 C.ar     1 ZINC001078110631    0.1600
24     F24    -4.8990    3.9472    0.0469 F        1 ZINC001078110631   -0.1200
25     C25    -3.7081    1.9004    0.0353 C.ar     1 ZINC001078110631   -0.2000
26     C26    -2.5063    1.2189    0.0206 C.ar     1 ZINC001078110631    0.2000
27     F27    -2.4936   -0.1320    0.0183 F        1 ZINC001078110631   -0.1000
28     H28     1.1303    2.8713    0.0067 H        1 ZINC001078110631    0.4000
29     H29     2.4248    1.5674    2.1300 H        1 ZINC001078110631    0.0500
30     H30     2.6193   -0.1572    1.6886 H        1 ZINC001078110631    0.1000
31     H31     4.3069    2.0523    3.2408 H        1 ZINC001078110631    0.0400
32     H32     4.7997    0.3443    3.3298 H        1 ZINC001078110631    0.0800
33     H33     6.9229    0.8966    2.1740 H        1 ZINC001078110631    0.0900
34     H34     6.4301    2.6046    2.0851 H        1 ZINC001078110631    0.0800
35     H35     7.6157    3.8538    4.3421 H        1 ZINC001078110631    0.0700
36     H36     5.8553    3.6583    4.5926 H        1 ZINC001078110631    0.0800
37     H37     7.6792    3.6333    6.6832 H        1 ZINC001078110631    0.0900
38     H38     6.1410    2.7086    6.7321 H        1 ZINC001078110631    0.0800
39     H39     8.9471    1.7293    6.1151 H        1 ZINC001078110631    0.1100
40     H40     7.5971    0.8589    6.9088 H        1 ZINC001078110631    0.1000
41     H41     4.3759    3.1488    1.1072 H        1 ZINC001078110631    0.0600
42     H42     5.5767    2.2399    0.1383 H        1 ZINC001078110631    0.0900
43     H43     4.8685    1.9637   -2.1151 H        1 ZINC001078110631    0.3800
44     H44    -0.3987    3.8845    0.0151 H        1 ZINC001078110631    0.1500
45     H45    -2.5472    5.0763    0.0319 H        1 ZINC001078110631    0.1500
46     H46    -4.6387    1.3523    0.0413 H        1 ZINC001078110631    0.1600
@<TRIPOS>BOND
1     1     2     2
2     2     3     am
3     2     20    1
4     3     4     1
5     3     28    1
6     4     5     1
7     4     17    1
8     4     6     1
9     6     7     1
10    6     29    1
11    6     30    1
12    7     8     1
13    7     16    1
14    8     9     1
15    8     31    1
16    8     32    1
17    9     10    1
18    9     33    1
19    9     34    1
20    10    14    am
21    10    11    1
22    11    12    1
23    11    35    1
24    11    36    1
25    12    13    1
26    12    37    1
27    12    38    1
28    13    14    1
29    13    39    1
30    13    40    1
31    14    15    2
32    16    17    1
33    16    41    1
34    16    42    1
35    17    18    1
36    17    19    1
37    19    43    1
38    20    26    ar
39    20    21    ar
40    21    22    ar
41    21    44    1
42    22    23    ar
43    22    45    1
44    23    24    1
45    23    25    ar
46    25    26    ar
47    25    46    1
48    26    27    1
@<TRIPOS>SUBSTRUCTURE
1   ZINC001078110631 1     RESIDUE    1   A     ZIN   1
@<TRIPOS>MOLECULE
ZINC000080099940
43	46	1	0	0
SMALL
USER_CHARGES
@<TRIPOS>ATOM
1      C1      0.0166    1.4864    0.1950 C.3      1 ZINC000080099940   -0.1100
2      C2      0.0262   -0.0161    0.0780 C.2      1 ZINC000080099940   -0.0700
3      C3     -1.1345   -0.7170    0.1842 C.2      1 ZINC000080099940   -0.0900
4      C4     -1.1060   -2.1223    0.0721 C.2      1 ZINC000080099940    0.2300
5      N5     -2.0616   -3.0378    0.1339 N.2      1 ZINC000080099940   -0.4800
6      C6     -1.5173   -4.2534   -0.0345 C.2      1 ZINC000080099940    0.1000
7      C7     -2.2521   -5.5424   -0.0325 C.ar     1 ZINC000080099940   -0.0200
8      C8     -1.5617   -6.7396   -0.2143 C.ar     1 ZINC000080099940   -0.0800
9      C9     -2.2464   -7.9363   -0.2117 C.ar     1 ZINC000080099940   -0.1200
10     C10    -3.6242   -7.9494   -0.0284 C.ar     1 ZINC000080099940    0.1500
11     N11    -4.3163   -9.1636   -0.0266 N.am     1 ZINC000080099940   -0.6500
12     C12    -3.7288  -10.2734    0.4629 C.2      1 ZINC000080099940    0.5700
13     O13    -2.6363  -10.2006    0.9895 O.2      1 ZINC000080099940   -0.5000
14     C14    -4.4163  -11.5844    0.3586 C.ar     1 ZINC000080099940    0.1300
15     C15    -3.8213  -12.7397    0.8666 C.ar     1 ZINC000080099940   -0.1700
16     C16    -4.5066  -13.9403    0.7438 C.ar     1 ZINC000080099940    0.1600
17     N17    -5.6899  -13.9489    0.1548 N.ar     1 ZINC000080099940   -0.5000
18     C18    -6.2241  -12.8379   -0.3147 C.ar     1 ZINC000080099940    0.3200
19     C19    -7.5759  -12.8996   -0.9780 C.3      1 ZINC000080099940   -0.0900
20     N20    -5.6135  -11.6769   -0.2162 N.ar     1 ZINC000080099940   -0.5000
21     C21    -4.3145   -6.7568    0.1534 C.ar     1 ZINC000080099940   -0.1400
22     C22    -3.6330   -5.5583    0.1568 C.ar     1 ZINC000080099940   -0.0700
23     C23    -0.1747   -4.1005   -0.2083 C.2      1 ZINC000080099940   -0.0900
24     N24     0.0887   -2.7607   -0.1420 N.pl3    1 ZINC000080099940   -0.3600
25     C25     1.2462   -2.0443   -0.2466 C.2      1 ZINC000080099940    0.0600
26     C26     1.2332   -0.6985   -0.1471 C.2      1 ZINC000080099940   -0.1400
27     H27     1.0317    1.8663    0.0792 H        1 ZINC000080099940    0.0700
28     H28    -0.6199    1.9074   -0.5832 H        1 ZINC000080099940    0.0800
29     H29    -0.3688    1.7721    1.1738 H        1 ZINC000080099940    0.0800
30     H30    -2.0689   -0.2023    0.3532 H        1 ZINC000080099940    0.1500
31     H31    -0.4913   -6.7298   -0.3574 H        1 ZINC000080099940    0.1300
32     H32    -1.7119   -8.8641   -0.3524 H        1 ZINC000080099940    0.1400
33     H33    -5.2195   -9.2075   -0.3775 H        1 ZINC000080099940    0.4200
34     H34    -2.8526  -12.7007    1.3425 H        1 ZINC000080099940    0.1600
35     H35    -4.0784  -14.8559    1.1244 H        1 ZINC000080099940    0.1800
36     H36    -8.3547  -12.7488   -0.2305 H        1 ZINC000080099940    0.0900
37     H37    -7.6443  -12.1198   -1.7365 H        1 ZINC000080099940    0.0900
38     H38    -7.7063  -13.8750   -1.4469 H        1 ZINC000080099940    0.0900
39     H39    -5.3850   -6.7693    0.2957 H        1 ZINC000080099940    0.1300
40     H40    -4.1698   -4.6319    0.2985 H        1 ZINC000080099940    0.1400
41     H41     0.5457   -4.8891   -0.3680 H        1 ZINC000080099940    0.1900
42     H42     2.1804   -2.5592   -0.4152 H        1 ZINC000080099940    0.1700
43     H43     2.1563   -0.1443   -0.2322 H        1 ZINC000080099940    0.1500
@<TRIPOS>BOND
1     1     2     1
2     1     27    1
3     1     28    1
4     1     29    1
5     2     26    1
6     2     3     2
7     3     4     1
8     3     30    1
9     4     24    1
10    4     5     2
11    5     6     1
12    6     7     1
13    6     23    2
14    7     22    ar
15    7     8     ar
16    8     9     ar
17    8     31    1
18    9     10    ar
19    9     32    1
20    10    11    1
21    10    21    ar
22    11    12    am
23    11    33    1
24    12    13    2
25    12    14    1
26    14    20    ar
27    14    15    ar
28    15    16    ar
29    15    34    1
30    16    17    ar
31    16    35    1
32    17    18    ar
33    18    19    1
34    18    20    ar
35    19    36    1
36    19    37    1
37    19    38    1
38    21    22    ar
39    21    39    1
40    22    40    1
41    23    24    1
42    23    41    1
43    24    25    1
44    25    26    2
45    25    42    1
46    26    43    1
@<TRIPOS>SUBSTRUCTURE
1   ZINC000080099940 1     RESIDUE    1   A     ZIN   1
@<TRIPOS>MOLECULE
ZINC000866034032
42	44	1	0	0
SMALL
USER_CHARGES
@<TRIPOS>ATOM
1      C1     -0.0187    1.5258    0.0104 C.3      1 ZINC000866034032   -0.1300
2      C2      0.0021   -0.0041    0.0020 C.3      1 ZINC000866034032   -0.0800
3      C3     -1.3826   -0.6168    0.2216 C.3      1 ZINC000866034032   -0.1300
4      C4      0.7559   -0.6009   -1.1965 C.3      1 ZINC000866034032    0.1400
5      H5      0.7979    0.0640   -2.0592 H        1 ZINC000866034032    0.1100
6      N6      0.3214   -1.9559   -1.5449 N.am     1 ZINC000866034032   -0.7000
7      C7      0.4858   -2.4140   -2.8017 C.2      1 ZINC000866034032    0.5100
8      O8      0.9934   -1.7045   -3.6442 O.2      1 ZINC000866034032   -0.5300
9      C9      0.0388   -3.8078   -3.1602 C.3      1 ZINC000866034032   -0.1100
10     C10     0.3333   -4.0714   -4.6145 C.ar     1 ZINC000866034032   -0.0500
11     C11    -0.6101   -3.7645   -5.5770 C.ar     1 ZINC000866034032   -0.0500
12     C12    -0.3406   -4.0065   -6.9111 C.ar     1 ZINC000866034032   -0.0900
13     C13     0.8733   -4.5553   -7.2827 C.ar     1 ZINC000866034032   -0.0500
14     Br14    1.2427   -4.8860   -9.1075 Br       1 ZINC000866034032    0.0200
15     C15     1.8173   -4.8619   -6.3190 C.ar     1 ZINC000866034032   -0.0200
16     N16     3.1167   -5.4488   -6.7161 N.pl3    1 ZINC000866034032    0.0200
17     O17     3.9478   -5.7186   -5.8675 O.2      1 ZINC000866034032   -0.1600
18     O18     3.3550   -5.6619   -7.8914 O.2      1 ZINC000866034032   -0.1300
19     C19     1.5491   -4.6148   -4.9860 C.ar     1 ZINC000866034032   -0.0300
20     C20     2.0265   -0.5653   -0.3316 C.3      1 ZINC000866034032   -0.1500
21     H21     2.6623    0.3132   -0.4412 H        1 ZINC000866034032    0.1200
22     C22     2.7696   -1.9195   -0.3007 C.3      1 ZINC000866034032   -0.1400
23     C23     2.2031   -2.6323    0.9468 C.3      1 ZINC000866034032    0.0500
24     O24     0.9068   -2.0321    1.1579 O.3      1 ZINC000866034032   -0.3600
25     C25     1.0897   -0.6076    0.9028 C.3      1 ZINC000866034032    0.0600
26     H26     1.3902   -0.0208    1.7708 H        1 ZINC000866034032    0.1000
27     H27     1.0039    1.9031    0.0027 H        1 ZINC000866034032    0.0600
28     H28    -0.5459    1.8868   -0.8726 H        1 ZINC000866034032    0.0700
29     H29    -0.5289    1.8773    0.9072 H        1 ZINC000866034032    0.0700
30     H30    -2.0047   -0.4320   -0.6541 H        1 ZINC000866034032    0.0600
31     H31    -1.2840   -1.6912    0.3770 H        1 ZINC000866034032    0.0600
32     H32    -1.8455   -0.1638    1.0983 H        1 ZINC000866034032    0.0600
33     H33    -0.0846   -2.5234   -0.8711 H        1 ZINC000866034032    0.4100
34     H34     0.5740   -4.5307   -2.5444 H        1 ZINC000866034032    0.1100
35     H35    -1.0326   -3.9026   -2.9834 H        1 ZINC000866034032    0.1200
36     H36    -1.5580   -3.3360   -5.2867 H        1 ZINC000866034032    0.1500
37     H37    -1.0780   -3.7674   -7.6631 H        1 ZINC000866034032    0.1600
38     H38     2.2862   -4.8537   -4.2336 H        1 ZINC000866034032    0.1600
39     H39     2.5523   -2.4947   -1.2007 H        1 ZINC000866034032    0.0800
40     H40     3.8434   -1.7633   -0.1965 H        1 ZINC000866034032    0.0800
41     H41     2.1003   -3.7011    0.7593 H        1 ZINC000866034032    0.0900
42     H42     2.8470   -2.4576    1.8088 H        1 ZINC000866034032    0.0600
@<TRIPOS>BOND
1     1     2     1
2     1     27    1
3     1     28    1
4     1     29    1
5     2     25    1
6     2     3     1
7     2     4     1
8     3     30    1
9     3     31    1
10    3     32    1
11    4     5     1
12    4     6     1
13    4     20    1
14    6     7     am
15    6     33    1
16    7     8     2
17    7     9     1
18    9     10    1
19    9     34    1
20    9     35    1
21    10    19    ar
22    10    11    ar
23    11    12    ar
24    11    36    1
25    12    13    ar
26    12    37    1
27    13    14    1
28    13    15    ar
29    15    16    1
30    15    19    ar
31    16    17    2
32    16    18    2
33    19    38    1
34    20    21    1
35    20    25    1
36    20    22    1
37    22    23    1
38    22    39    1
39    22    40    1
40    23    24    1
41    23    41    1
42    23    42    1
43    24    25    1
44    25    26    1
@<TRIPOS>SUBSTRUCTURE
1   ZINC000866034032 1     RESIDUE    1   A     ZIN   1
@<TRIPOS>MOLECULE
ZINC000012087388
55	58	0	0	0
SMALL
USER_CHARGES
@<TRIPOS>ATOM
1 C1        1.8180     0.8284    -2.3460 C.3    1 <0>      -0.6600
2 S2        1.5099    -0.9591    -2.3253 S.o2   1 <0>       2.5100
3 O3        2.6261    -1.6512    -1.7830 O.2    1 <0>      -0.9400
4 O4        0.1897    -1.2323    -1.8763 O.2    1 <0>      -0.9300
5 C5        1.4953    -1.4224    -4.0252 C.ar   1 <0>      -0.8400
6 C6        2.4622    -2.2742    -4.5352 C.ar   1 <0>       0.3000
7 N7        2.4223    -2.6026    -5.8160 N.ar   1 <0>      -0.5800
8 C8        1.4726    -2.1270    -6.6078 C.ar   1 <0>       0.6000
9 N9        1.4609    -2.4913    -7.9430 N.pl3  1 <0>      -0.5700
10 C10       0.4257    -1.9774    -8.8502 C.3    1 <0>       0.1200
11 C11       1.1072    -1.3313   -10.0605 C.3    1 <0>      -0.1400
12 C12       2.0611    -2.3409   -10.7030 C.3    1 <0>      -0.1200
13 C13       3.1419    -2.7373    -9.6946 C.3    1 <0>      -0.1400
14 C14       2.4870    -3.3946    -8.4815 C.3    1 <0>       0.1200
15 N15       0.5334    -1.3111    -6.1518 N.ar   1 <0>      -0.5700
16 C16       0.5130    -0.9473    -4.8803 C.ar   1 <0>       0.3200
17 C17      -0.5587    -0.0191    -4.3698 C.3    1 <0>      -0.0700
18 C18      -0.4855     1.3093    -5.1263 C.3    1 <0>      -0.1300
19 C19      -1.5537     2.2624    -4.5810 C.3    1 <0>       0.0900
20 N20      -2.8620     1.5979    -4.6538 N.am   1 <0>      -0.6100
21 C21      -3.9002     2.1917    -5.2751 C.2    1 <0>       0.5900
22 O22      -4.9407     1.5831    -5.4373 O.2    1 <0>      -0.5100
23 C23      -3.7748     3.5764    -5.7574 C.2    1 <0>      -0.0400
24 C24      -4.5155     4.1769    -6.7605 C.2    1 <0>      -0.1500
25 C25      -4.0291     5.4833    -6.8481 C.2    1 <0>       0.0000
26 N26      -3.0789     5.6182    -5.9585 N.2    1 <0>      -0.2700
27 N27      -2.9080     4.5283    -5.3008 N.pl3  1 <0>      -0.3900
28 C28      -3.0170     0.2735    -4.0367 C.3    1 <0>       0.1100
29 C29      -1.9325    -0.6573    -4.5881 C.3    1 <0>      -0.1200
30 H30       2.7743     1.0267    -2.8300 H      1 <0>       0.1400
31 H31       1.0213     1.3281    -2.8971 H      1 <0>       0.1300
32 H32       1.8435     1.2046    -1.3232 H      1 <0>       0.1400
33 H33       3.2391    -2.6649    -3.8947 H      1 <0>       0.1900
34 H34      -0.2087    -2.7988    -9.1834 H      1 <0>       0.0700
35 H35      -0.1787    -1.2337    -8.3309 H      1 <0>       0.1000
36 H36       0.3515    -1.0317   -10.7866 H      1 <0>       0.0800
37 H37       1.6690    -0.4550    -9.7368 H      1 <0>       0.0700
38 H38       1.5027    -3.2273   -11.0041 H      1 <0>       0.0700
39 H39       2.5290    -1.8918   -11.5791 H      1 <0>       0.0700
40 H40       3.8344    -3.4385   -10.1603 H      1 <0>       0.0800
41 H41       3.6845    -1.8478    -9.3744 H      1 <0>       0.0700
42 H42       3.2416    -3.5884    -7.7192 H      1 <0>       0.1000
43 H43       2.0190    -4.3320    -8.7821 H      1 <0>       0.0700
44 H44      -0.4068     0.1606    -3.3055 H      1 <0>       0.1000
45 H45       0.5011     1.7520    -4.9894 H      1 <0>       0.0800
46 H46      -0.6621     1.1338    -6.1875 H      1 <0>       0.0900
47 H47      -1.3270     2.5105    -3.5441 H      1 <0>       0.0800
48 H48      -1.5721     3.1723    -5.1809 H      1 <0>       0.0900
49 H49      -5.3024     3.7303    -7.3502 H      1 <0>       0.1700
50 H50      -4.3754     6.2464    -7.5294 H      1 <0>       0.1900
51 H51      -2.2579     4.3987    -4.5927 H      1 <0>       0.4400
52 H52      -2.9097     0.3594    -2.9554 H      1 <0>       0.0800
53 H53      -4.0010    -0.1289    -4.2775 H      1 <0>       0.1000
54 H54      -2.0954    -0.8143    -5.6543 H      1 <0>       0.0800
55 H55      -1.9757    -1.6144    -4.0682 H      1 <0>       0.0900
@<TRIPOS>BOND
1    1    2 1
2    1   30 1
3    1   31 1
4    1   32 1
5    2    3 2
6    2    4 2
7    2    5 1
8    5   16 ar
9    5    6 ar
10    6    7 ar
11    6   33 1
12    7    8 ar
13    8    9 1
14    8   15 ar
15    9   14 1
16    9   10 1
17   10   11 1
18   10   34 1
19   10   35 1
20   11   12 1
21   11   36 1
22   11   37 1
23   12   13 1
24   12   38 1
25   12   39 1
26   13   14 1
27   13   40 1
28   13   41 1
29   14   42 1
30   14   43 1
31   15   16 ar
32   16   17 1
33   17   29 1
34   17   18 1
35   17   44 1
36   18   19 1
37   18   45 1
38   18   46 1
39   19   20 1
40   19   47 1
41   19   48 1
42   20   21 am
43   20   28 1
44   21   22 2
45   21   23 1
46   23   27 1
47   23   24 2
48   24   25 1
49   24   49 1
50   25   26 2
51   25   50 1
52   26   27 1
53   27   51 1
54   28   29 1
55   28   52 1
56   28   53 1
57   29   54 1
58   29   55 1
@<TRIPOS>MOLECULE
ZINC000062882109
59	61	1	0	0
SMALL
USER_CHARGES
@<TRIPOS>ATOM
1      C1     -2.4700    2.0301   -3.8275 C.3      1 ZINC000062882109   -0.2000
2      C2     -2.1212    0.5643   -3.8558 C.2      1 ZINC000062882109    0.3900
3      O3     -1.2379    0.1652   -4.5843 O.2      1 ZINC000062882109   -0.4500
4      C4     -2.8527   -0.3829   -2.9990 C.ar     1 ZINC000062882109   -0.1300
5      C5     -3.8758    0.0733   -2.1619 C.ar     1 ZINC000062882109   -0.1100
6      C6     -4.5585   -0.8181   -1.3607 C.ar     1 ZINC000062882109   -0.0900
7      C7     -4.2351   -2.1625   -1.3819 C.ar     1 ZINC000062882109   -0.1800
8      C8     -3.2204   -2.6260   -2.2094 C.ar     1 ZINC000062882109    0.1200
9      O9     -2.9079   -3.9487   -2.2250 O.3      1 ZINC000062882109   -0.2800
10     C10    -3.6285   -4.7961   -1.3280 C.3      1 ZINC000062882109    0.0700
11     H11    -4.6622   -4.4573   -1.2594 H        1 ZINC000062882109    0.1000
12     C12    -2.9807   -4.7408    0.0570 C.3      1 ZINC000062882109   -0.1800
13     C13    -3.5971   -6.2128   -1.8410 C.2      1 ZINC000062882109    0.5200
14     O14    -2.9403   -6.4879   -2.8228 O.2      1 ZINC000062882109   -0.4900
15     N15    -4.2990   -7.1741   -1.2087 N.am     1 ZINC000062882109   -0.6600
16     C16    -4.1811   -8.5097   -1.6152 C.ar     1 ZINC000062882109    0.1400
17     C17    -2.9688   -8.9854   -2.0961 C.ar     1 ZINC000062882109   -0.1000
18     C18    -2.8489  -10.3015   -2.4996 C.ar     1 ZINC000062882109   -0.1100
19     C19    -3.9399  -11.1545   -2.4264 C.ar     1 ZINC000062882109    0.0800
20     O20    -3.8115  -12.4453   -2.8347 O.3      1 ZINC000062882109   -0.3100
21     C21    -4.7692  -13.3931   -2.3572 C.3      1 ZINC000062882109    0.0500
22     C22    -6.1789  -12.8267   -2.5786 C.3      1 ZINC000062882109    0.0400
23     N23    -6.2606  -11.5431   -1.8609 N.am     1 ZINC000062882109   -0.5500
24     C24    -7.3571  -11.2092   -1.1518 C.2      1 ZINC000062882109    0.5300
25     O25    -7.4355  -10.1143   -0.6359 O.2      1 ZINC000062882109   -0.5100
26     C26    -8.4857  -12.1963   -1.0001 C.3      1 ZINC000062882109   -0.0800
27     C27    -9.6280  -11.5482   -0.2152 C.3      1 ZINC000062882109   -0.1300
28     C28    -8.9892  -12.6119   -2.3838 C.3      1 ZINC000062882109   -0.1600
29     C29    -7.9857  -13.4309   -0.2473 C.3      1 ZINC000062882109   -0.1500
30     C30    -5.1553  -10.6786   -1.9406 C.ar     1 ZINC000062882109    0.1000
31     C31    -5.2752   -9.3608   -1.5324 C.ar     1 ZINC000062882109   -0.1400
32     C32    -2.5317   -1.7433   -3.0228 C.ar     1 ZINC000062882109   -0.0900
33     H33    -1.8270    2.5700   -4.5226 H        1 ZINC000062882109    0.0900
34     H34    -3.5119    2.1614   -4.1196 H        1 ZINC000062882109    0.1000
35     H35    -2.3233    2.4191   -2.8199 H        1 ZINC000062882109    0.1000
36     H36    -4.1308    1.1225   -2.1424 H        1 ZINC000062882109    0.1400
37     H37    -5.3482   -0.4649   -0.7142 H        1 ZINC000062882109    0.1300
38     H38    -4.7737   -2.8550   -0.7521 H        1 ZINC000062882109    0.1300
39     H39    -3.0034   -3.7161    0.4280 H        1 ZINC000062882109    0.0800
40     H40    -3.5304   -5.3872    0.7413 H        1 ZINC000062882109    0.0800
41     H41    -1.9470   -5.0796   -0.0115 H        1 ZINC000062882109    0.0800
42     H42    -4.8857   -6.9413   -0.4722 H        1 ZINC000062882109    0.4100
43     H43    -2.1166   -8.3246   -2.1552 H        1 ZINC000062882109    0.1400
44     H44    -1.9037  -10.6666   -2.8733 H        1 ZINC000062882109    0.1400
45     H45    -4.6613  -14.3291   -2.9052 H        1 ZINC000062882109    0.1300
46     H46    -4.6093  -13.5698   -1.2936 H        1 ZINC000062882109    0.0700
47     H47    -6.3504  -12.6669   -3.6431 H        1 ZINC000062882109    0.0900
48     H48    -6.9221  -13.5194   -2.1834 H        1 ZINC000062882109    0.1300
49     H49    -9.9842  -10.6687   -0.7515 H        1 ZINC000062882109    0.0600
50     H50   -10.4443  -12.2622   -0.1055 H        1 ZINC000062882109    0.0700
51     H51    -9.2693  -11.2522    0.7706 H        1 ZINC000062882109    0.0700
52     H52    -8.1755  -13.0736   -2.9430 H        1 ZINC000062882109    0.0700
53     H53    -9.8055  -13.3258   -2.2741 H        1 ZINC000062882109    0.0800
54     H54    -9.3454  -11.7324   -2.9201 H        1 ZINC000062882109    0.0600
55     H55    -7.8139  -13.1742    0.7980 H        1 ZINC000062882109    0.0700
56     H56    -8.7334  -14.2216   -0.3091 H        1 ZINC000062882109    0.0800
57     H57    -7.0537  -13.7764   -0.6946 H        1 ZINC000062882109    0.0700
58     H58    -6.2185   -8.9947   -1.1548 H        1 ZINC000062882109    0.1800
59     H59    -1.7428   -2.1028   -3.6669 H        1 ZINC000062882109    0.1400
@<TRIPOS>BOND
1     1     2     1
2     1     33    1
3     1     34    1
4     1     35    1
5     2     3     2
6     2     4     1
7     4     32    ar
8     4     5     ar
9     5     6     ar
10    5     36    1
11    6     7     ar
12    6     37    1
13    7     8     ar
14    7     38    1
15    8     9     1
16    8     32    ar
17    9     10    1
18    10    11    1
19    10    12    1
20    10    13    1
21    12    39    1
22    12    40    1
23    12    41    1
24    13    14    2
25    13    15    am
26    15    16    1
27    15    42    1
28    16    31    ar
29    16    17    ar
30    17    18    ar
31    17    43    1
32    18    19    ar
33    18    44    1
34    19    30    ar
35    19    20    1
36    20    21    1
37    21    22    1
38    21    45    1
39    21    46    1
40    22    23    1
41    22    47    1
42    22    48    1
43    23    24    am
44    23    30    1
45    24    25    2
46    24    26    1
47    26    27    1
48    26    28    1
49    26    29    1
50    27    49    1
51    27    50    1
52    27    51    1
53    28    52    1
54    28    53    1
55    28    54    1
56    29    55    1
57    29    56    1
58    29    57    1
59    30    31    ar
60    31    58    1
61    32    59    1
@<TRIPOS>SUBSTRUCTURE
1   ZINC000062882109 1     RESIDUE    1   A     ZIN   1
@<TRIPOS>MOLECULE
ZINC000541252362
41	44	1	0	0
SMALL
USER_CHARGES
@<TRIPOS>ATOM
1      C1      2.9250   -2.0629    7.4058 C.3      1 ZINC000541252362    0.1000
2      N2      2.5490   -3.0460    6.3867 N.pl3    1 ZINC000541252362   -0.3800
3      C3      2.9617   -4.3241    6.3105 C.2      1 ZINC000541252362    0.2600
4      N4      2.4054   -4.8730    5.2632 N.2      1 ZINC000541252362   -0.5300
5      C5      1.6276   -3.9770    4.6410 C.2      1 ZINC000541252362    0.2700
6      C6      0.8311   -4.2271    3.4140 C.ar     1 ZINC000541252362    0.0000
7      C7      0.0631   -3.2052    2.8593 C.ar     1 ZINC000541252362   -0.1000
8      C8     -0.6772   -3.4392    1.7174 C.ar     1 ZINC000541252362   -0.1000
9      C9     -0.6598   -4.6856    1.1212 C.ar     1 ZINC000541252362   -0.1300
10     C10     0.1033   -5.7105    1.6675 C.ar     1 ZINC000541252362    0.1400
11     N11     0.1185   -6.9716    1.0610 N.am     1 ZINC000541252362   -0.6800
12     C12     0.2401   -8.0812    1.8162 C.2      1 ZINC000541252362    0.5100
13     O13     0.2402   -7.9944    3.0260 O.2      1 ZINC000541252362   -0.4900
14     C14     0.3761   -9.4298    1.1576 C.3      1 ZINC000541252362   -0.0600
15     C15     0.4954  -10.4960    2.2159 C.2      1 ZINC000541252362    0.0700
16     C16    -0.2902  -11.5900    2.3250 C.2      1 ZINC000541252362   -0.0700
17     N17     0.1482  -12.2956    3.4120 N.pl3    1 ZINC000541252362   -0.3500
18     C18    -0.2681  -13.4640    3.9840 C.2      1 ZINC000541252362    0.0700
19     C19     0.3523  -13.9528    5.0792 C.2      1 ZINC000541252362   -0.0500
20     Cl20   -0.1931  -15.4396    5.7902 Cl       1 ZINC000541252362   -0.0200
21     C21     1.4381  -13.2633    5.6457 C.2      1 ZINC000541252362   -0.0900
22     C22     1.8630  -12.0981    5.0851 C.2      1 ZINC000541252362    0.0200
23     Cl23    3.2029  -11.2328    5.7705 Cl       1 ZINC000541252362   -0.0100
24     C24     1.2039  -11.6009    3.9417 C.2      1 ZINC000541252362    0.2200
25     N25     1.3986  -10.5203    3.1986 N.2      1 ZINC000541252362   -0.4300
26     C26     0.8538   -5.4818    2.8107 C.ar     1 ZINC000541252362   -0.0800
27     N27     1.6822   -2.8410    5.3010 N.2      1 ZINC000541252362   -0.3100
28     H28     2.2224   -2.1150    8.2375 H        1 ZINC000541252362    0.0800
29     H29     3.9308   -2.2793    7.7657 H        1 ZINC000541252362    0.0900
30     H30     2.9014   -1.0631    6.9723 H        1 ZINC000541252362    0.0900
31     H31     3.6372   -4.8127    6.9971 H        1 ZINC000541252362    0.2200
32     H32     0.0465   -2.2299    3.3230 H        1 ZINC000541252362    0.1300
33     H33    -1.2718   -2.6458    1.2891 H        1 ZINC000541252362    0.1300
34     H34    -1.2410   -4.8639    0.2286 H        1 ZINC000541252362    0.1300
35     H35     0.0415   -7.0470    0.0970 H        1 ZINC000541252362    0.4100
36     H36    -0.5031   -9.6244    0.5433 H        1 ZINC000541252362    0.1200
37     H37     1.2672   -9.4395    0.5299 H        1 ZINC000541252362    0.1200
38     H38    -1.1111  -11.8570    1.6759 H        1 ZINC000541252362    0.1900
39     H39    -1.1015  -14.0017    3.5565 H        1 ZINC000541252362    0.1800
40     H40     1.9327  -13.6559    6.5219 H        1 ZINC000541252362    0.1600
41     H41     1.4478   -6.2768    3.2367 H        1 ZINC000541252362    0.1500
@<TRIPOS>BOND
1     1     2     1
2     1     28    1
3     1     29    1
4     1     30    1
5     2     27    1
6     2     3     1
7     3     4     2
8     3     31    1
9     4     5     1
10    5     6     1
11    5     27    2
12    6     26    ar
13    6     7     ar
14    7     8     ar
15    7     32    1
16    8     9     ar
17    8     33    1
18    9     10    ar
19    9     34    1
20    10    11    1
21    10    26    ar
22    11    12    am
23    11    35    1
24    12    13    2
25    12    14    1
26    14    15    1
27    14    36    1
28    14    37    1
29    15    25    1
30    15    16    2
31    16    17    1
32    16    38    1
33    17    24    1
34    17    18    1
35    18    19    2
36    18    39    1
37    19    20    1
38    19    21    1
39    21    22    2
40    21    40    1
41    22    23    1
42    22    24    1
43    24    25    2
44    26    41    1
@<TRIPOS>SUBSTRUCTURE
1   ZINC000541252362 1     RESIDUE    1   A     ZIN   1
@<TRIPOS>MOLECULE
ZINC000045927156
52	56	1	0	0
SMALL
USER_CHARGES
@<TRIPOS>ATOM
1      O1      0.0021   -0.0041    0.0020 O.2      1 ZINC000045927156   -0.5800
2      C2     -0.0144    1.2117    0.0087 C.2      1 ZINC000045927156    0.7300
3      N3      1.1435    1.9014    0.0014 N.am     1 ZINC000045927156   -0.7400
4      C4      2.4220    1.1862   -0.0147 C.3      1 ZINC000045927156    0.1700
5      C5      3.5540    2.1810   -0.0202 C.ar     1 ZINC000045927156   -0.0700
6      C6      4.1953    2.4916   -1.2044 C.ar     1 ZINC000045927156   -0.1000
7      C7      5.2338    3.4042   -1.2095 C.ar     1 ZINC000045927156   -0.1100
8      C8      5.6304    4.0063   -0.0303 C.ar     1 ZINC000045927156   -0.1100
9      C9      4.9883    3.6963    1.1542 C.ar     1 ZINC000045927156   -0.1000
10     C10     3.9473    2.7872    1.1586 C.ar     1 ZINC000045927156   -0.1000
11     C11     3.2473    2.4493    2.4497 C.3      1 ZINC000045927156    0.1700
12     N12     3.8424    1.2410    3.0260 N.pl3    1 ZINC000045927156   -0.3800
13     C13     4.3502    1.1043    4.2632 C.2      1 ZINC000045927156    0.2500
14     N14     4.7822   -0.1240    4.3913 N.2      1 ZINC000045927156   -0.5400
15     C15     4.5684   -0.7984    3.2622 C.2      1 ZINC000045927156    0.2000
16     N16     3.9900   -0.0065    2.3979 N.2      1 ZINC000045927156   -0.3100
17     N17    -1.1906    1.8696    0.0179 N.am     1 ZINC000045927156   -0.6200
18     C18    -1.3557    3.3346    0.0202 C.3      1 ZINC000045927156    0.1000
19     C19    -2.7622    3.5762   -0.5823 C.3      1 ZINC000045927156   -0.1300
20     C20    -3.5623    2.3846    0.0070 C.3      1 ZINC000045927156   -0.1200
21     C21    -2.5217    1.2453    0.0208 C.3      1 ZINC000045927156    0.2300
22     H22    -2.6451    0.6198   -0.8633 H        1 ZINC000045927156    0.1000
23     C23    -2.6902    0.4122    1.2653 C.2      1 ZINC000045927156    0.0900
24     N24    -2.3260    0.7830    2.4342 N.2      1 ZINC000045927156   -0.4500
25     C25    -2.5390   -0.0655    3.4581 C.ar     1 ZINC000045927156    0.0800
26     C26    -2.2417    0.0838    4.8275 C.ar     1 ZINC000045927156   -0.0700
27     C27    -2.5429   -0.9083    5.7109 C.ar     1 ZINC000045927156   -0.1100
28     C28    -3.1469   -2.0816    5.2821 C.ar     1 ZINC000045927156   -0.1000
29     C29    -3.4490   -2.2551    3.9500 C.ar     1 ZINC000045927156   -0.0700
30     C30    -3.1482   -1.2513    3.0322 C.ar     1 ZINC000045927156   -0.1800
31     S31    -3.3973   -1.1406    1.2926 S.3      1 ZINC000045927156    0.1200
32     H32     1.1303    2.8713    0.0067 H        1 ZINC000045927156    0.3900
33     H33     2.4967    0.5556    0.8712 H        1 ZINC000045927156    0.1000
34     H34     2.4797    0.5652   -0.9086 H        1 ZINC000045927156    0.0700
35     H35     3.8854    2.0211   -2.1259 H        1 ZINC000045927156    0.1300
36     H36     5.7354    3.6464   -2.1347 H        1 ZINC000045927156    0.1300
37     H37     6.4421    4.7187   -0.0341 H        1 ZINC000045927156    0.1300
38     H38     5.2984    4.1665    2.0757 H        1 ZINC000045927156    0.1300
39     H39     3.3566    3.2775    3.1498 H        1 ZINC000045927156    0.1100
40     H40     2.1891    2.2756    2.2546 H        1 ZINC000045927156    0.1000
41     H41     4.3945    1.8742    5.0192 H        1 ZINC000045927156    0.2200
42     H42     4.8270   -1.8328    3.0905 H        1 ZINC000045927156    0.2200
43     H43    -1.3079    3.7201    1.0386 H        1 ZINC000045927156    0.0700
44     H44    -0.5917    3.8034   -0.6001 H        1 ZINC000045927156    0.0800
45     H45    -3.1734    4.5277   -0.2454 H        1 ZINC000045927156    0.0900
46     H46    -2.7345    3.5279   -1.6709 H        1 ZINC000045927156    0.0800
47     H47    -3.9045    2.6116    1.0167 H        1 ZINC000045927156    0.0900
48     H48    -4.4030    2.1282   -0.6376 H        1 ZINC000045927156    0.0900
49     H49    -1.7716    0.9905    5.1788 H        1 ZINC000045927156    0.1300
50     H50    -2.3086   -0.7804    6.7574 H        1 ZINC000045927156    0.1400
51     H51    -3.3799   -2.8597    5.9939 H        1 ZINC000045927156    0.1400
52     H52    -3.9184   -3.1689    3.6169 H        1 ZINC000045927156    0.1300
@<TRIPOS>BOND
1     1     2     2
2     2     3     am
3     2     17    am
4     3     4     1
5     3     32    1
6     4     5     1
7     4     33    1
8     4     34    1
9     5     10    ar
10    5     6     ar
11    6     7     ar
12    6     35    1
13    7     8     ar
14    7     36    1
15    8     9     ar
16    8     37    1
17    9     10    ar
18    9     38    1
19    10    11    1
20    11    12    1
21    11    39    1
22    11    40    1
23    12    16    1
24    12    13    1
25    13    14    2
26    13    41    1
27    14    15    1
28    15    16    2
29    15    42    1
30    17    21    1
31    17    18    1
32    18    19    1
33    18    43    1
34    18    44    1
35    19    20    1
36    19    45    1
37    19    46    1
38    20    21    1
39    20    47    1
40    20    48    1
41    21    22    1
42    21    23    1
43    23    31    1
44    23    24    2
45    24    25    1
46    25    30    ar
47    25    26    ar
48    26    27    ar
49    26    49    1
50    27    28    ar
51    27    50    1
52    28    29    ar
53    28    51    1
54    29    30    ar
55    29    52    1
56    30    31    1
@<TRIPOS>SUBSTRUCTURE
1   ZINC000045927156 1     RESIDUE    1   A     ZIN   1
@<TRIPOS>MOLECULE
ZINC000535362552
40	43	1	0	0
SMALL
USER_CHARGES
@<TRIPOS>ATOM
1      C1     -2.9286   -0.5224   -2.2562 C.3      1 ZINC000535362552    0.0300
2      O2     -1.9712   -1.3377   -1.5304 O.3      1 ZINC000535362552   -0.3400
3      C3     -2.3302   -2.6093   -1.2603 C.2      1 ZINC000535362552    0.5500
4      O4     -3.4142   -3.0247   -1.6218 O.2      1 ZINC000535362552   -0.4800
5      C5     -1.4123   -3.4918   -0.5298 C.2      1 ZINC000535362552   -0.0100
6      C6     -1.6640   -4.7879   -0.2077 C.2      1 ZINC000535362552   -0.0900
7      C7     -0.4812   -5.2644    0.5081 C.ar     1 ZINC000535362552   -0.1300
8      C8     -0.1225   -6.4825    1.0898 C.ar     1 ZINC000535362552   -0.0600
9      C9      1.1076   -6.6064    1.7080 C.ar     1 ZINC000535362552    0.1200
10     N10     1.4759   -7.8248    2.2937 N.am     1 ZINC000535362552   -0.6700
11     C11     1.0602   -8.9863    1.7509 C.2      1 ZINC000535362552    0.5200
12     O12     0.4487   -8.9817    0.7034 O.2      1 ZINC000535362552   -0.5000
13     C13     1.3552  -10.2907    2.4454 C.3      1 ZINC000535362552   -0.1000
14     H14     2.4295  -10.4326    2.5637 H        1 ZINC000535362552    0.1300
15     C15     0.6341  -10.3649    3.8121 C.3      1 ZINC000535362552    0.0600
16     O16     0.2588  -11.7500    3.8993 O.3      1 ZINC000535362552   -0.2900
17     C17     0.0971  -12.2508    2.6436 C.ar     1 ZINC000535362552    0.1300
18     C18    -0.5820  -13.3890    2.2169 C.ar     1 ZINC000535362552   -0.1300
19     C19    -0.6120  -13.7194    0.8777 C.ar     1 ZINC000535362552   -0.0500
20     C20     0.0321  -12.9240   -0.0528 C.ar     1 ZINC000535362552   -0.1200
21     Br21   -0.0083  -13.3855   -1.8862 Br       1 ZINC000535362552   -0.0400
22     C22     0.7062  -11.7883    0.3633 C.ar     1 ZINC000535362552   -0.0100
23     C23     0.7338  -11.4550    1.6985 C.ar     1 ZINC000535362552   -0.1600
24     C24     1.9827   -5.5222    1.7498 C.ar     1 ZINC000535362552   -0.0900
25     C25     1.6367   -4.3175    1.1793 C.ar     1 ZINC000535362552   -0.0900
26     C26     0.4049   -4.1715    0.5521 C.ar     1 ZINC000535362552    0.0700
27     O27    -0.1888   -3.1404   -0.0819 O.3      1 ZINC000535362552   -0.1700
28     H28    -3.8528   -0.4502   -1.6828 H        1 ZINC000535362552    0.0700
29     H29    -2.5158    0.4751   -2.4070 H        1 ZINC000535362552    0.1100
30     H30    -3.1359   -0.9799   -3.2235 H        1 ZINC000535362552    0.0700
31     H31    -2.5570   -5.3516   -0.4339 H        1 ZINC000535362552    0.1800
32     H32    -0.8016   -7.3216    1.0570 H        1 ZINC000535362552    0.1400
33     H33     2.0301   -7.8323    3.0898 H        1 ZINC000535362552    0.4100
34     H34     1.3127  -10.0970    4.6219 H        1 ZINC000535362552    0.1200
35     H35    -0.2481   -9.7246    3.8185 H        1 ZINC000535362552    0.0900
36     H36    -1.0874  -14.0155    2.9370 H        1 ZINC000535362552    0.1400
37     H37    -1.1408  -14.6038    0.5542 H        1 ZINC000535362552    0.1400
38     H38     1.2106  -11.1642   -0.3595 H        1 ZINC000535362552    0.1400
39     H39     2.9418   -5.6280    2.2350 H        1 ZINC000535362552    0.1500
40     H40     2.3235   -3.4850    1.2191 H        1 ZINC000535362552    0.1500
@<TRIPOS>BOND
1     1     2     1
2     1     28    1
3     1     29    1
4     1     30    1
5     2     3     1
6     3     4     2
7     3     5     1
8     5     27    1
9     5     6     2
10    6     7     1
11    6     31    1
12    7     26    ar
13    7     8     ar
14    8     9     ar
15    8     32    1
16    9     10    1
17    9     24    ar
18    10    11    am
19    10    33    1
20    11    12    2
21    11    13    1
22    13    14    1
23    13    23    1
24    13    15    1
25    15    16    1
26    15    34    1
27    15    35    1
28    16    17    1
29    17    23    ar
30    17    18    ar
31    18    19    ar
32    18    36    1
33    19    20    ar
34    19    37    1
35    20    21    1
36    20    22    ar
37    22    23    ar
38    22    38    1
39    24    25    ar
40    24    39    1
41    25    26    ar
42    25    40    1
43    26    27    1
@<TRIPOS>SUBSTRUCTURE
1   ZINC000535362552 1     RESIDUE    1   A     ZIN   1
@<TRIPOS>MOLECULE
ZINC000534890536
56	59	1	0	0
SMALL
USER_CHARGES
@<TRIPOS>ATOM
1      C1     -0.0173    1.4248    0.0099 C.3      1 ZINC000534890536    0.0300
2      O2      0.0021   -0.0041    0.0020 O.3      1 ZINC000534890536   -0.3200
3      C3      0.6058   -0.6071   -1.0557 C.ar     1 ZINC000534890536    0.1300
4      C4      1.1730    0.1607   -2.0624 C.ar     1 ZINC000534890536   -0.2100
5      C5      1.7865   -0.4547   -3.1363 C.ar     1 ZINC000534890536   -0.0700
6      C6      1.8352   -1.8346   -3.2086 C.ar     1 ZINC000534890536   -0.1100
7      C7      2.5046   -2.5033   -4.3815 C.3      1 ZINC000534890536   -0.0600
8      H8      2.9074   -1.7632   -5.0729 H        1 ZINC000534890536    0.0900
9      C9      1.5267   -3.4663   -5.1052 C.3      1 ZINC000534890536   -0.1200
10     C10     2.4737   -4.5003   -5.7499 C.3      1 ZINC000534890536    0.1000
11     N11     3.7365   -4.4641   -4.9979 N.am     1 ZINC000534890536   -0.6400
12     C12     4.8298   -5.2067   -5.2624 C.2      1 ZINC000534890536    0.7300
13     O13     5.8235   -5.0934   -4.5710 O.2      1 ZINC000534890536   -0.5700
14     N14     4.8215   -6.0749   -6.2932 N.am     1 ZINC000534890536   -0.7300
15     C15     6.0098   -6.8821   -6.5806 C.3      1 ZINC000534890536    0.1600
16     H16     6.5030   -7.1463   -5.6452 H        1 ZINC000534890536    0.1200
17     C17     5.5918   -8.1593   -7.3134 C.3      1 ZINC000534890536   -0.1300
18     C18     6.8544   -8.8486   -7.8446 C.3      1 ZINC000534890536   -0.1300
19     C19     7.4646   -7.9750   -8.9413 C.3      1 ZINC000534890536    0.1100
20     N20     7.6146   -6.6021   -8.4755 N.am     1 ZINC000534890536   -0.5600
21     C21     8.5053   -5.7690   -9.1640 C.ar     1 ZINC000534890536    0.1000
22     C22     8.0585   -5.0060  -10.2335 C.ar     1 ZINC000534890536   -0.0800
23     C23     8.9394   -4.1845  -10.9107 C.ar     1 ZINC000534890536   -0.1200
24     C24    10.2654   -4.1218  -10.5250 C.ar     1 ZINC000534890536   -0.0800
25     C25    10.7157   -4.8804   -9.4597 C.ar     1 ZINC000534890536   -0.1500
26     C26     9.8386   -5.7002   -8.7739 C.ar     1 ZINC000534890536    0.1100
27     F27    10.2781   -6.4410   -7.7331 F        1 ZINC000534890536   -0.1300
28     C28     6.9557   -6.0901   -7.4369 C.2      1 ZINC000534890536    0.5000
29     O29     7.1306   -4.9208   -7.1659 O.2      1 ZINC000534890536   -0.5100
30     C30     3.6100   -3.4796   -3.9074 C.3      1 ZINC000534890536    0.1300
31     C31     1.2710   -2.6021   -2.2063 C.ar     1 ZINC000534890536   -0.0700
32     C32     0.6609   -1.9915   -1.1277 C.ar     1 ZINC000534890536   -0.1500
33     H33     1.0053    1.8021    0.0021 H        1 ZINC000534890536    0.0600
34     H34    -0.5445    1.7859   -0.8732 H        1 ZINC000534890536    0.0600
35     H35    -0.5275    1.7763    0.9067 H        1 ZINC000534890536    0.1000
36     H36     1.1347    1.2385   -2.0068 H        1 ZINC000534890536    0.1300
37     H37     2.2283    0.1425   -3.9203 H        1 ZINC000534890536    0.1300
38     H38     0.8596   -3.9476   -4.3901 H        1 ZINC000534890536    0.0800
39     H39     0.9576   -2.9359   -5.8687 H        1 ZINC000534890536    0.0900
40     H40     2.0335   -5.4955   -5.6876 H        1 ZINC000534890536    0.0700
41     H41     2.6552   -4.2376   -6.7921 H        1 ZINC000534890536    0.0700
42     H42     4.0287   -6.1654   -6.8448 H        1 ZINC000534890536    0.4000
43     H43     5.0728   -8.8250   -6.6238 H        1 ZINC000534890536    0.0900
44     H44     4.9341   -7.9067   -8.1452 H        1 ZINC000534890536    0.0800
45     H45     7.5722   -8.9722   -7.0337 H        1 ZINC000534890536    0.0800
46     H46     6.5931   -9.8234   -8.2565 H        1 ZINC000534890536    0.1000
47     H47     8.4424   -8.3713   -9.2154 H        1 ZINC000534890536    0.0800
48     H48     6.8152   -7.9896   -9.8166 H        1 ZINC000534890536    0.0700
49     H49     7.0230   -5.0543  -10.5365 H        1 ZINC000534890536    0.1300
50     H50     8.5915   -3.5907  -11.7430 H        1 ZINC000534890536    0.1300
51     H51    10.9514   -3.4793  -11.0569 H        1 ZINC000534890536    0.1400
52     H52    11.7523   -4.8292   -9.1608 H        1 ZINC000534890536    0.1400
53     H53     4.5511   -2.9484   -3.7648 H        1 ZINC000534890536    0.0800
54     H54     3.3084   -3.9734   -2.9836 H        1 ZINC000534890536    0.0700
55     H55     1.3106   -3.6797   -2.2649 H        1 ZINC000534890536    0.1300
56     H56     0.2204   -2.5913   -0.3451 H        1 ZINC000534890536    0.1300
@<TRIPOS>BOND
1     1     2     1
2     1     33    1
3     1     34    1
4     1     35    1
5     2     3     1
6     3     32    ar
7     3     4     ar
8     4     5     ar
9     4     36    1
10    5     6     ar
11    5     37    1
12    6     7     1
13    6     31    ar
14    7     8     1
15    7     30    1
16    7     9     1
17    9     10    1
18    9     38    1
19    9     39    1
20    10    11    1
21    10    40    1
22    10    41    1
23    11    12    am
24    11    30    1
25    12    13    2
26    12    14    am
27    14    15    1
28    14    42    1
29    15    16    1
30    15    28    1
31    15    17    1
32    17    18    1
33    17    43    1
34    17    44    1
35    18    19    1
36    18    45    1
37    18    46    1
38    19    20    1
39    19    47    1
40    19    48    1
41    20    21    1
42    20    28    am
43    21    26    ar
44    21    22    ar
45    22    23    ar
46    22    49    1
47    23    24    ar
48    23    50    1
49    24    25    ar
50    24    51    1
51    25    26    ar
52    25    52    1
53    26    27    1
54    28    29    2
55    30    53    1
56    30    54    1
57    31    32    ar
58    31    55    1
59    32    56    1
@<TRIPOS>SUBSTRUCTURE
1   ZINC000534890536 1     RESIDUE    1   A     ZIN   1
@<TRIPOS>MOLECULE
ZINC000011498449
37	38	1	0	0
SMALL
USER_CHARGES
@<TRIPOS>ATOM
1      C1     -0.0187    1.5258    0.0104 C.3      1 ZINC000011498449   -0.1500
2      C2      0.0021   -0.0041    0.0020 C.3      1 ZINC000011498449    0.0700
3      H3      0.5121   -0.3563   -0.8946 H        1 ZINC000011498449    0.0600
4      C4     -1.4357   -0.5357    0.0154 C.3      1 ZINC000011498449    0.0800
5      N5     -1.3891   -1.9954    0.1960 N.am     1 ZINC000011498449   -0.6100
6      C6     -2.0685   -2.8183   -0.6271 C.2      1 ZINC000011498449    0.5100
7      O7     -2.7309   -2.3584   -1.5330 O.2      1 ZINC000011498449   -0.5300
8      C8     -2.0051   -4.3099   -0.4219 C.3      1 ZINC000011498449    0.1000
9      N9     -2.8221   -4.9778   -1.4381 N.am     1 ZINC000011498449   -0.7200
10     C10    -2.9157   -6.3223   -1.4507 C.2      1 ZINC000011498449    0.5600
11     O11    -2.3222   -6.9808   -0.6189 O.2      1 ZINC000011498449   -0.5100
12     C12    -3.7395   -6.9957   -2.4753 C.ar     1 ZINC000011498449   -0.1300
13     C13    -4.4178   -6.2426   -3.4357 C.ar     1 ZINC000011498449   -0.0600
14     C14    -5.1848   -6.8768   -4.3898 C.ar     1 ZINC000011498449   -0.1100
15     C15    -5.2839   -8.2586   -4.3978 C.ar     1 ZINC000011498449    0.0000
16     Cl16   -6.2515   -9.0487   -5.6032 Cl       1 ZINC000011498449   -0.0400
17     C17    -4.6142   -9.0122   -3.4487 C.ar     1 ZINC000011498449   -0.1100
18     C18    -3.8386   -8.3898   -2.4911 C.ar     1 ZINC000011498449    0.0300
19     Cl19   -2.9993   -9.3355   -1.3017 Cl       1 ZINC000011498449   -0.0100
20     C20    -0.5783   -2.5300    1.3016 C.3      1 ZINC000011498449    0.0700
21     C21     0.8176   -1.9012    1.2255 C.3      1 ZINC000011498449    0.0500
22     O22     0.6913   -0.4787    1.1611 O.3      1 ZINC000011498449   -0.3700
23     H23     1.0039    1.9031    0.0027 H        1 ZINC000011498449    0.0700
24     H24    -0.5459    1.8868   -0.8726 H        1 ZINC000011498449    0.0800
25     H25    -0.5289    1.8773    0.9072 H        1 ZINC000011498449    0.0700
26     H26    -1.9874   -0.0814    0.8384 H        1 ZINC000011498449    0.0800
27     H27    -1.9238   -0.2981   -0.9298 H        1 ZINC000011498449    0.1000
28     H28    -0.9715   -4.6451   -0.5089 H        1 ZINC000011498449    0.1000
29     H29    -2.3849   -4.5568    0.5695 H        1 ZINC000011498449    0.1000
30     H30    -3.2957   -4.4524   -2.1019 H        1 ZINC000011498449    0.4100
31     H31    -4.3421   -5.1653   -3.4309 H        1 ZINC000011498449    0.1500
32     H32    -5.7100   -6.2949   -5.1327 H        1 ZINC000011498449    0.1500
33     H33    -4.6954  -10.0891   -3.4601 H        1 ZINC000011498449    0.1500
34     H34    -1.0437   -2.2765    2.2541 H        1 ZINC000011498449    0.0900
35     H35    -0.4987   -3.6131    1.2081 H        1 ZINC000011498449    0.1000
36     H36     1.3896   -2.1761    2.1117 H        1 ZINC000011498449    0.1100
37     H37     1.3309   -2.2611    0.3338 H        1 ZINC000011498449    0.0600
@<TRIPOS>BOND
1     1     2     1
2     1     23    1
3     1     24    1
4     1     25    1
5     2     3     1
6     2     22    1
7     2     4     1
8     4     5     1
9     4     26    1
10    4     27    1
11    5     6     am
12    5     20    1
13    6     7     2
14    6     8     1
15    8     9     1
16    8     28    1
17    8     29    1
18    9     10    am
19    9     30    1
20    10    11    2
21    10    12    1
22    12    18    ar
23    12    13    ar
24    13    14    ar
25    13    31    1
26    14    15    ar
27    14    32    1
28    15    16    1
29    15    17    ar
30    17    18    ar
31    17    33    1
32    18    19    1
33    20    21    1
34    20    34    1
35    20    35    1
36    21    22    1
37    21    36    1
38    21    37    1
@<TRIPOS>SUBSTRUCTURE
1   ZINC000011498449 1     RESIDUE    1   A     ZIN   1
@<TRIPOS>MOLECULE
ZINC000182044395
51	53	1	0	0
SMALL
USER_CHARGES
@<TRIPOS>ATOM
1      C1      1.8401   12.4627    4.2004 C.3      1 ZINC000182044395   -0.1800
2      C2      2.4204   12.7390    2.8119 C.3      1 ZINC000182044395    0.0800
3      N3      2.6750   11.4690    2.1274 N.pl3    1 ZINC000182044395   -0.4800
4      C4      1.6999   10.9376    1.3786 C.2      1 ZINC000182044395    0.2500
5      C5      1.8589    9.7459    0.7021 C.2      1 ZINC000182044395   -0.3500
6      C6      0.7630    9.1955   -0.1108 C.2      1 ZINC000182044395    0.5900
7      O7     -0.2559    9.8396   -0.2742 O.2      1 ZINC000182044395   -0.5600
8      N8      0.8880    7.9776   -0.6744 N.am     1 ZINC000182044395   -0.7200
9      C9     -0.2433    7.3819   -1.3897 C.3      1 ZINC000182044395    0.1100
10     H10    -1.1738    7.6642   -0.8973 H        1 ZINC000182044395    0.0900
11     C11    -0.2567    7.8871   -2.8338 C.3      1 ZINC000182044395   -0.1600
12     C12    -0.1050    5.8581   -1.3837 C.3      1 ZINC000182044395    0.1100
13     H13    -0.9467    5.4149   -1.9159 H        1 ZINC000182044395    0.1100
14     O14     1.1149    5.4880   -2.0292 O.3      1 ZINC000182044395   -0.5500
15     C15    -0.0916    5.3529    0.0604 C.3      1 ZINC000182044395   -0.1100
16     C16    -0.0793    3.8460    0.0653 C.ar     1 ZINC000182044395   -0.0800
17     C17     1.1235    3.1646    0.0598 C.ar     1 ZINC000182044395   -0.1000
18     C18     1.1348    1.7823    0.0639 C.ar     1 ZINC000182044395   -0.1200
19     C19    -0.0566    1.0814    0.0743 C.ar     1 ZINC000182044395   -0.1200
20     C20    -1.2594    1.7627    0.0749 C.ar     1 ZINC000182044395   -0.1200
21     C21    -1.2707    3.1451    0.0748 C.ar     1 ZINC000182044395   -0.1200
22     C22     3.1404    9.0313    0.8119 C.2      1 ZINC000182044395    0.4400
23     O23     3.3285    7.9729    0.2381 O.2      1 ZINC000182044395   -0.4900
24     C24     4.1895    9.6530    1.6415 C.ar     1 ZINC000182044395   -0.1800
25     C25     5.4370    9.0498    1.7984 C.ar     1 ZINC000182044395   -0.0200
26     C26     6.3920    9.6559    2.5865 C.ar     1 ZINC000182044395   -0.0700
27     Cl27    7.9472    8.9109    2.7872 Cl       1 ZINC000182044395   -0.0500
28     C28     6.1153   10.8601    3.2200 C.ar     1 ZINC000182044395   -0.0500
29     C29     4.8871   11.4666    3.0727 C.ar     1 ZINC000182044395   -0.1600
30     C30     3.9076   10.8718    2.2818 C.ar     1 ZINC000182044395    0.1900
31     H31     2.5504   11.8733    4.7803 H        1 ZINC000182044395    0.0700
32     H32     1.6507   13.4076    4.7097 H        1 ZINC000182044395    0.0800
33     H33     0.9059   11.9102    4.1003 H        1 ZINC000182044395    0.0700
34     H34     3.3547   13.2915    2.9120 H        1 ZINC000182044395    0.1000
35     H35     1.7101   13.3283    2.2320 H        1 ZINC000182044395    0.1100
36     H36     0.7576   11.4597    1.3015 H        1 ZINC000182044395    0.1800
37     H37     1.7270    7.4956   -0.6065 H        1 ZINC000182044395    0.4100
38     H38    -0.3552    8.9726   -2.8380 H        1 ZINC000182044395    0.0600
39     H39     0.6738    7.6047   -3.3262 H        1 ZINC000182044395    0.0600
40     H40    -1.0984    7.4438   -3.3660 H        1 ZINC000182044395    0.0600
41     H41     1.9076    5.8480   -1.6083 H        1 ZINC000182044395    0.3700
42     H42    -0.9812    5.7107    0.5788 H        1 ZINC000182044395    0.0800
43     H43     0.7987    5.7252    0.5673 H        1 ZINC000182044395    0.0800
44     H44     2.0543    3.7122    0.0521 H        1 ZINC000182044395    0.1200
45     H45     2.0745    1.2500    0.0592 H        1 ZINC000182044395    0.1200
46     H46    -0.0478    0.0014    0.0775 H        1 ZINC000182044395    0.1200
47     H47    -2.1903    1.2151    0.0785 H        1 ZINC000182044395    0.1200
48     H48    -2.2104    3.6774    0.0788 H        1 ZINC000182044395    0.1200
49     H49     5.6536    8.1135    1.3056 H        1 ZINC000182044395    0.1500
50     H50     6.8711   11.3265    3.8345 H        1 ZINC000182044395    0.1500
51     H51     4.6842   12.4033    3.5704 H        1 ZINC000182044395    0.1500
@<TRIPOS>BOND
1     1     2     1
2     1     31    1
3     1     32    1
4     1     33    1
5     2     3     1
6     2     34    1
7     2     35    1
8     3     30    1
9     3     4     1
10    4     5     2
11    4     36    1
12    5     6     1
13    5     22    1
14    6     7     2
15    6     8     am
16    8     9     1
17    8     37    1
18    9     10    1
19    9     11    1
20    9     12    1
21    11    38    1
22    11    39    1
23    11    40    1
24    12    13    1
25    12    14    1
26    12    15    1
27    14    41    1
28    15    16    1
29    15    42    1
30    15    43    1
31    16    21    ar
32    16    17    ar
33    17    18    ar
34    17    44    1
35    18    19    ar
36    18    45    1
37    19    20    ar
38    19    46    1
39    20    21    ar
40    20    47    1
41    21    48    1
42    22    23    2
43    22    24    1
44    24    30    ar
45    24    25    ar
46    25    26    ar
47    25    49    1
48    26    27    1
49    26    28    ar
50    28    29    ar
51    28    50    1
52    29    30    ar
53    29    51    1
@<TRIPOS>SUBSTRUCTURE
1   ZINC000182044395 1     RESIDUE    1   A     ZIN   1
@<TRIPOS>MOLECULE
ZINC000151303733
45	48	1	0	0
SMALL
USER_CHARGES
@<TRIPOS>ATOM
1      C1     -0.0728    1.5030    0.0120 C.3      1 ZINC000151303733   -0.1000
2      C2     -0.0312   -0.0034    0.0026 C.2      1 ZINC000151303733   -0.1200
3      C3     -0.0308   -0.7142   -1.1258 C.2      1 ZINC000151303733   -0.2000
4      S4      0.0232   -2.4304   -0.7457 S.3      1 ZINC000151303733    0.1200
5      C5      0.0429   -2.0809    0.9778 C.2      1 ZINC000151303733   -0.2400
6      C6      0.0154   -0.7566    1.1675 C.2      1 ZINC000151303733    0.1200
7      N7      0.0231   -0.1734    2.4482 N.am     1 ZINC000151303733   -0.6400
8      C8     -0.0679   -0.9526    3.5441 C.2      1 ZINC000151303733    0.5100
9      O9     -0.0581   -2.1605    3.4320 O.2      1 ZINC000151303733   -0.5100
10     C10    -0.1819   -0.3234    4.9087 C.3      1 ZINC000151303733    0.1000
11     N11    -0.2662   -1.3746    5.9256 N.am     1 ZINC000151303733   -0.7100
12     C12    -0.3748   -1.0452    7.2280 C.2      1 ZINC000151303733    0.5200
13     O13    -0.4028    0.1215    7.5580 O.2      1 ZINC000151303733   -0.5100
14     C14    -0.4615   -2.1265    8.2740 C.3      1 ZINC000151303733    0.1600
15     H15     0.4255   -2.7587    8.2331 H        1 ZINC000151303733    0.1300
16     C16    -1.7011   -2.9581    8.0583 C.ar     1 ZINC000151303733   -0.0900
17     C17    -2.1408   -3.7415    7.0169 C.ar     1 ZINC000151303733   -0.0900
18     C18    -3.3554   -4.4006    7.1119 C.ar     1 ZINC000151303733   -0.0800
19     C19    -4.1285   -4.2733    8.2521 C.ar     1 ZINC000151303733   -0.1200
20     C20    -3.6967   -3.4898    9.3026 C.ar     1 ZINC000151303733   -0.0400
21     C21    -2.4739   -2.8226    9.2143 C.ar     1 ZINC000151303733   -0.1500
22     C22    -1.7575   -1.9326   10.1479 C.2      1 ZINC000151303733    0.5600
23     O23    -2.1610   -1.6105   11.2483 O.2      1 ZINC000151303733   -0.5100
24     N24    -0.5935   -1.5286    9.6075 N.am     1 ZINC000151303733   -0.5700
25     C25     0.3800   -0.6388   10.2453 C.3      1 ZINC000151303733    0.0900
26     C26    -0.0339    0.0400   11.5526 C.3      1 ZINC000151303733   -0.1800
27     C27     0.9916   -1.0953   11.5714 C.3      1 ZINC000151303733   -0.1900
28     H28     0.9442    1.8947   -0.0084 H        1 ZINC000151303733    0.0700
29     H29    -0.6161    1.8570   -0.8641 H        1 ZINC000151303733    0.0700
30     H30    -0.5765    1.8469    0.9154 H        1 ZINC000151303733    0.0600
31     H31    -0.0598   -0.2988   -2.1223 H        1 ZINC000151303733    0.1700
32     H32     0.0765   -2.8218    1.7629 H        1 ZINC000151303733    0.2000
33     H33     0.0938    0.7894    2.5422 H        1 ZINC000151303733    0.4200
34     H34     0.6952    0.2955    5.0978 H        1 ZINC000151303733    0.1100
35     H35    -1.0786    0.2948    4.9500 H        1 ZINC000151303733    0.1100
36     H36    -0.2438   -2.3077    5.6616 H        1 ZINC000151303733    0.4100
37     H37    -1.5396   -3.8425    6.1254 H        1 ZINC000151303733    0.1300
38     H38    -3.7000   -5.0152    6.2935 H        1 ZINC000151303733    0.1400
39     H39    -5.0748   -4.7894    8.3200 H        1 ZINC000151303733    0.1400
40     H40    -4.3032   -3.3934   10.1911 H        1 ZINC000151303733    0.1400
41     H41     1.0176   -0.0745    9.5648 H        1 ZINC000151303733    0.1400
42     H42     0.3314    1.0512   11.7322 H        1 ZINC000151303733    0.1000
43     H43    -1.0304   -0.1754   11.9380 H        1 ZINC000151303733    0.1300
44     H44     0.6697   -2.0577   11.9692 H        1 ZINC000151303733    0.1000
45     H45     2.0315   -0.8311   11.7634 H        1 ZINC000151303733    0.1000
@<TRIPOS>BOND
1     1     2     1
2     1     28    1
3     1     29    1
4     1     30    1
5     2     6     1
6     2     3     2
7     3     4     1
8     3     31    1
9     4     5     1
10    5     6     2
11    5     32    1
12    6     7     1
13    7     8     am
14    7     33    1
15    8     9     2
16    8     10    1
17    10    11    1
18    10    34    1
19    10    35    1
20    11    12    am
21    11    36    1
22    12    13    2
23    12    14    1
24    14    15    1
25    14    24    1
26    14    16    1
27    16    21    ar
28    16    17    ar
29    17    18    ar
30    17    37    1
31    18    19    ar
32    18    38    1
33    19    20    ar
34    19    39    1
35    20    21    ar
36    20    40    1
37    21    22    1
38    22    23    2
39    22    24    am
40    24    25    1
41    25    27    1
42    25    26    1
43    25    41    1
44    26    27    1
45    26    42    1
46    26    43    1
47    27    44    1
48    27    45    1
@<TRIPOS>SUBSTRUCTURE
1   ZINC000151303733 1     RESIDUE    1   A     ZIN   1
@<TRIPOS>MOLECULE
ZINC000479580180
51	55	1	0	0
SMALL
USER_CHARGES
@<TRIPOS>ATOM
1      O1      0.0021   -0.0041    0.0020 O.2      1 ZINC000479580180   -0.5200
2      C2     -0.0144    1.2086    0.0087 C.2      1 ZINC000479580180    0.5200
3      C3      1.2803    1.9798    0.0005 C.3      1 ZINC000479580180   -0.0700
4      C4      2.4389    1.0162   -0.0158 C.2      1 ZINC000479580180   -0.1600
5      C5      3.1235    0.5634    1.0430 C.2      1 ZINC000479580180    0.0300
6      O6      4.0897   -0.2823    0.6431 O.3      1 ZINC000479580180   -0.1900
7      C7      4.0816   -0.4219   -0.6977 C.ar     1 ZINC000479580180    0.0800
8      C8      4.8532   -1.1594   -1.5864 C.ar     1 ZINC000479580180   -0.1400
9      C9      4.5933   -1.0915   -2.9409 C.ar     1 ZINC000479580180    0.1300
10     F10     5.3450   -1.8102   -3.8033 F        1 ZINC000479580180   -0.1300
11     C11     3.5662   -0.2916   -3.4253 C.ar     1 ZINC000479580180   -0.1600
12     C12     2.7963    0.4419   -2.5654 C.ar     1 ZINC000479580180   -0.0400
13     C13     3.0401    0.3801   -1.1946 C.ar     1 ZINC000479580180   -0.1200
14     N14    -1.1906    1.8666    0.0178 N.am     1 ZINC000479580180   -0.6200
15     C15    -1.2267    3.3354    0.0199 C.3      1 ZINC000479580180    0.1100
16     C16    -2.1074    3.8085   -1.1408 C.3      1 ZINC000479580180   -0.1300
17     C17    -3.4829    3.1458   -1.0354 C.3      1 ZINC000479580180   -0.0100
18     C18    -4.3632    3.6352   -2.1564 C.2      1 ZINC000479580180    0.3000
19     N19    -5.2106    4.6275   -2.0867 N.2      1 ZINC000479580180   -0.5300
20     C20    -5.8225    4.7850   -3.2681 C.2      1 ZINC000479580180    0.2700
21     C21    -6.8502    5.8092   -3.5803 C.ar     1 ZINC000479580180   -0.0200
22     C22    -7.2514    6.7175   -2.6029 C.ar     1 ZINC000479580180   -0.0800
23     C23    -8.2072    7.6682   -2.8988 C.ar     1 ZINC000479580180   -0.1300
24     C24    -8.7669    7.7200   -4.1626 C.ar     1 ZINC000479580180   -0.1000
25     C25    -8.3722    6.8206   -5.1366 C.ar     1 ZINC000479580180   -0.1200
26     C26    -7.4130    5.8695   -4.8534 C.ar     1 ZINC000479580180   -0.0800
27     N27    -5.3612    3.8821   -4.1054 N.2      1 ZINC000479580180   -0.3000
28     N28    -4.4072    3.1290   -3.4019 N.pl3    1 ZINC000479580180   -0.4800
29     C29    -3.3279    1.6265   -1.1348 C.3      1 ZINC000479580180   -0.1400
30     C30    -2.4611    1.1287    0.0199 C.3      1 ZINC000479580180    0.1200
31     H31     1.3211    2.6120   -0.8866 H        1 ZINC000479580180    0.1100
32     H32     1.3381    2.6024    0.8933 H        1 ZINC000479580180    0.1100
33     H33     2.9279    0.8378    2.0691 H        1 ZINC000479580180    0.2100
34     H34     5.6542   -1.7839   -1.2191 H        1 ZINC000479580180    0.1500
35     H35     3.3746   -0.2485   -4.4873 H        1 ZINC000479580180    0.1400
36     H36     1.9992    1.0629   -2.9467 H        1 ZINC000479580180    0.1300
37     H37    -1.6436    3.6893    0.9628 H        1 ZINC000479580180    0.0800
38     H38    -0.2168    3.7259   -0.1049 H        1 ZINC000479580180    0.0900
39     H39    -2.2208    4.8916   -1.0934 H        1 ZINC000479580180    0.0900
40     H40    -1.6419    3.5321   -2.0869 H        1 ZINC000479580180    0.0700
41     H41    -3.9372    3.4025   -0.0784 H        1 ZINC000479580180    0.1200
42     H42    -6.8156    6.6775   -1.6156 H        1 ZINC000479580180    0.1400
43     H43    -8.5190    8.3728   -2.1420 H        1 ZINC000479580180    0.1300
44     H44    -9.5150    8.4651   -4.3897 H        1 ZINC000479580180    0.1300
45     H45    -8.8127    6.8652   -6.1217 H        1 ZINC000479580180    0.1300
46     H46    -7.1054    5.1679   -5.6147 H        1 ZINC000479580180    0.1300
47     H47    -3.8866    2.3859   -3.7450 H        1 ZINC000479580180    0.4400
48     H48    -4.3100    1.1566   -1.0831 H        1 ZINC000479580180    0.0900
49     H49    -2.8510    1.3706   -2.0809 H        1 ZINC000479580180    0.0700
50     H50    -2.2665    0.0631   -0.1024 H        1 ZINC000479580180    0.1000
51     H51    -2.9762    1.3021    0.9647 H        1 ZINC000479580180    0.0800
@<TRIPOS>BOND
1     1     2     2
2     2     3     1
3     2     14    am
4     3     4     1
5     3     31    1
6     3     32    1
7     4     13    1
8     4     5     2
9     5     6     1
10    5     33    1
11    6     7     1
12    7     13    ar
13    7     8     ar
14    8     9     ar
15    8     34    1
16    9     10    1
17    9     11    ar
18    11    12    ar
19    11    35    1
20    12    13    ar
21    12    36    1
22    14    30    1
23    14    15    1
24    15    16    1
25    15    37    1
26    15    38    1
27    16    17    1
28    16    39    1
29    16    40    1
30    17    18    1
31    17    29    1
32    17    41    1
33    18    28    1
34    18    19    2
35    19    20    1
36    20    21    1
37    20    27    2
38    21    26    ar
39    21    22    ar
40    22    23    ar
41    22    42    1
42    23    24    ar
43    23    43    1
44    24    25    ar
45    24    44    1
46    25    26    ar
47    25    45    1
48    26    46    1
49    27    28    1
50    28    47    1
51    29    30    1
52    29    48    1
53    29    49    1
54    30    50    1
55    30    51    1
@<TRIPOS>SUBSTRUCTURE
1   ZINC000479580180 1     RESIDUE    1   A     ZIN   1
@<TRIPOS>MOLECULE
ZINC000800038938
46	48	1	0	0
SMALL
USER_CHARGES
@<TRIPOS>ATOM
1      C1      0.2806    1.2193   -0.3907 C.3      1 ZINC000800038938    0.0300
2      O2      0.2239   -0.2086   -0.3855 O.3      1 ZINC000800038938   -0.3800
3      C3     -1.0969   -0.7374   -0.2512 C.3      1 ZINC000800038938    0.0900
4      H4     -1.8212   -0.0454   -0.6809 H        1 ZINC000800038938    0.0700
5      C5     -1.4190   -0.9827    1.2373 C.3      1 ZINC000800038938   -0.1400
6      C6     -2.2554   -2.2863    1.2351 C.3      1 ZINC000800038938   -0.1400
7      C7     -1.5677   -3.1318    0.1345 C.3      1 ZINC000800038938    0.0900
8      H8     -0.6737   -3.6156    0.5278 H        1 ZINC000800038938    0.0900
9      O9     -2.4883   -4.1217   -0.3955 O.3      1 ZINC000800038938   -0.3500
10     C10    -2.4891   -5.3290    0.1913 C.2      1 ZINC000800038938    0.4500
11     O11    -1.7451   -5.5512    1.1170 O.2      1 ZINC000800038938   -0.4800
12     C12    -3.4178   -6.4072   -0.3046 C.3      1 ZINC000800038938    0.1500
13     H13    -4.4516   -6.0706   -0.2264 H        1 ZINC000800038938    0.1200
14     C14    -3.0872   -6.7504   -1.7725 C.3      1 ZINC000800038938   -0.1200
15     C15    -3.2749   -8.2899   -1.8201 C.3      1 ZINC000800038938   -0.1300
16     C16    -2.7712   -8.7082   -0.4162 C.3      1 ZINC000800038938    0.0900
17     N17    -3.2295   -7.6320    0.4865 N.am     1 ZINC000800038938   -0.6000
18     C18    -3.4364   -7.7541    1.8127 C.2      1 ZINC000800038938    0.5800
19     O19    -3.7359   -6.7787    2.4734 O.2      1 ZINC000800038938   -0.4900
20     C20    -3.2990   -9.0737    2.4635 C.ar     1 ZINC000800038938   -0.1100
21     C21    -2.2584   -9.9298    2.0998 C.ar     1 ZINC000800038938   -0.0700
22     C22    -2.1359  -11.1612    2.7118 C.ar     1 ZINC000800038938   -0.0400
23     Cl23   -0.8420  -12.2273    2.2612 Cl       1 ZINC000800038938   -0.0500
24     C24    -3.0426  -11.5479    3.6846 C.ar     1 ZINC000800038938   -0.0700
25     C25    -4.0763  -10.7048    4.0496 C.ar     1 ZINC000800038938   -0.1000
26     C26    -4.2070   -9.4676    3.4499 C.ar     1 ZINC000800038938    0.0100
27     Cl27   -5.5053   -8.4107    3.9094 Cl       1 ZINC000800038938   -0.0300
28     C28    -1.1918   -2.1032   -0.9535 C.3      1 ZINC000800038938   -0.1200
29     H29     1.3166    1.5414   -0.4961 H        1 ZINC000800038938    0.0900
30     H30    -0.3060    1.6032   -1.2253 H        1 ZINC000800038938    0.0400
31     H31    -0.1256    1.6024    0.5455 H        1 ZINC000800038938    0.0400
32     H32    -0.5009   -1.1194    1.8088 H        1 ZINC000800038938    0.0800
33     H33    -2.0023   -0.1559    1.6427 H        1 ZINC000800038938    0.0800
34     H34    -2.1936   -2.7866    2.2016 H        1 ZINC000800038938    0.0800
35     H35    -3.2926   -2.0794    0.9717 H        1 ZINC000800038938    0.0800
36     H36    -3.7830   -6.2559   -2.4503 H        1 ZINC000800038938    0.1000
37     H37    -2.0583   -6.4798   -2.0094 H        1 ZINC000800038938    0.0900
38     H38    -4.3247   -8.5516   -1.9526 H        1 ZINC000800038938    0.0900
39     H39    -2.6612   -8.7342   -2.6037 H        1 ZINC000800038938    0.1000
40     H40    -3.2124   -9.6608   -0.1232 H        1 ZINC000800038938    0.0900
41     H41    -1.6832   -8.7744   -0.4076 H        1 ZINC000800038938    0.0800
42     H42    -1.5508   -9.6298    1.3411 H        1 ZINC000800038938    0.1500
43     H43    -2.9421  -12.5123    4.1602 H        1 ZINC000800038938    0.1500
44     H44    -4.7802  -11.0127    4.8088 H        1 ZINC000800038938    0.1500
45     H45    -1.9628   -2.0755   -1.7235 H        1 ZINC000800038938    0.0900
46     H46    -0.2303   -2.3628   -1.3965 H        1 ZINC000800038938    0.0900
@<TRIPOS>BOND
1     1     2     1
2     1     29    1
3     1     30    1
4     1     31    1
5     2     3     1
6     3     4     1
7     3     28    1
8     3     5     1
9     5     6     1
10    5     32    1
11    5     33    1
12    6     7     1
13    6     34    1
14    6     35    1
15    7     8     1
16    7     9     1
17    7     28    1
18    9     10    1
19    10    11    2
20    10    12    1
21    12    13    1
22    12    17    1
23    12    14    1
24    14    15    1
25    14    36    1
26    14    37    1
27    15    16    1
28    15    38    1
29    15    39    1
30    16    17    1
31    16    40    1
32    16    41    1
33    17    18    am
34    18    19    2
35    18    20    1
36    20    26    ar
37    20    21    ar
38    21    22    ar
39    21    42    1
40    22    23    1
41    22    24    ar
42    24    25    ar
43    24    43    1
44    25    26    ar
45    25    44    1
46    26    27    1
47    28    45    1
48    28    46    1
@<TRIPOS>SUBSTRUCTURE
1   ZINC000800038938 1     RESIDUE    1   A     ZIN   1
@<TRIPOS>MOLECULE
ZINC001248546333
48	50	1	0	0
SMALL
USER_CHARGES
@<TRIPOS>ATOM
1      C1     -0.0406    1.4985    0.0048 C.3      1 ZINC001248546333   -0.1200
2      C2     -0.0147   -0.0083   -0.0020 C.ar     1 ZINC001248546333   -0.0800
3      C3     -0.0089   -0.6929   -1.2039 C.ar     1 ZINC001248546333   -0.1200
4      C4      0.0149   -2.0763   -1.2188 C.ar     1 ZINC001248546333   -0.1100
5      C5      0.0334   -2.7816   -0.0333 C.ar     1 ZINC001248546333   -0.1100
6      C6      0.0282   -2.0969    1.1826 C.ar     1 ZINC001248546333   -0.0600
7      C7      0.0480   -2.8463    2.4566 C.2      1 ZINC001248546333   -0.0600
8      C8      1.0988   -2.7118    3.2290 C.2      1 ZINC001248546333   -0.1700
9      C9      1.2590   -3.4273    4.5416 C.3      1 ZINC001248546333    0.1500
10     N10    -0.0205   -4.0496    4.9110 N.am     1 ZINC001248546333   -0.6300
11     C11    -0.4910   -3.9890    6.1725 C.2      1 ZINC001248546333    0.7200
12     O12    -1.5945   -4.4288    6.4315 O.2      1 ZINC001248546333   -0.5800
13     N13     0.2617   -3.4408    7.1469 N.am     1 ZINC001248546333   -0.7500
14     C14    -0.2020   -3.4726    8.5362 C.3      1 ZINC001248546333    0.2000
15     C15     0.8149   -2.7984    9.4207 C.2      1 ZINC001248546333    0.0700
16     C16     0.7908   -1.5067    9.8232 C.2      1 ZINC001248546333   -0.2000
17     C17     1.9121   -1.2863   10.6298 C.2      1 ZINC001248546333   -0.0200
18     C18     2.2807    0.0153   11.2939 C.3      1 ZINC001248546333    0.5600
19     F19     1.6968    0.0726   12.5639 F        1 ZINC001248546333   -0.1700
20     F20     3.6718    0.0990   11.4159 F        1 ZINC001248546333   -0.1700
21     F21     1.8156    1.0827   10.5183 F        1 ZINC001248546333   -0.1600
22     N22     2.5851   -2.4054   10.7088 N.2      1 ZINC001248546333   -0.2200
23     N23     1.9096   -3.3763    9.9581 N.pl3    1 ZINC001248546333   -0.3400
24     C24     2.3234   -4.7704    9.7804 C.3      1 ZINC001248546333    0.0900
25     C25    -0.7676   -4.7425    3.8471 C.3      1 ZINC001248546333    0.1300
26     C26    -1.1380   -3.7049    2.7817 C.3      1 ZINC001248546333   -0.1000
27     C27     0.0091   -0.7019    1.1907 C.ar     1 ZINC001248546333   -0.1100
28     H28     0.9806    1.8795   -0.0036 H        1 ZINC001248546333    0.0700
29     H29    -0.5694    1.8568   -0.8784 H        1 ZINC001248546333    0.0700
30     H30    -0.5518    1.8490    0.9015 H        1 ZINC001248546333    0.0700
31     H31    -0.0234   -0.1454   -2.1347 H        1 ZINC001248546333    0.1200
32     H32     0.0185   -2.6050   -2.1605 H        1 ZINC001248546333    0.1200
33     H33     0.0516   -3.8614   -0.0463 H        1 ZINC001248546333    0.1200
34     H34     1.8909   -2.0528    2.9054 H        1 ZINC001248546333    0.1200
35     H35     2.0243   -4.1974    4.4456 H        1 ZINC001248546333    0.0800
36     H36     1.5530   -2.7141    5.3117 H        1 ZINC001248546333    0.0800
37     H37     1.1105   -3.0253    6.9283 H        1 ZINC001248546333    0.4000
38     H38    -1.1548   -2.9487    8.6132 H        1 ZINC001248546333    0.1000
39     H39    -0.3299   -4.5076    8.8530 H        1 ZINC001248546333    0.0900
40     H40     0.0389   -0.7752    9.5666 H        1 ZINC001248546333    0.1700
41     H41     1.8853   -5.3828   10.5685 H        1 ZINC001248546333    0.0900
42     H42     1.9826   -5.1295    8.8093 H        1 ZINC001248546333    0.1000
43     H43     3.4102   -4.8360    9.8310 H        1 ZINC001248546333    0.1000
44     H44    -0.1452   -5.5217    3.4072 H        1 ZINC001248546333    0.0700
45     H45    -1.6743   -5.1838    4.2609 H        1 ZINC001248546333    0.1000
46     H46    -1.9510   -3.0811    3.1533 H        1 ZINC001248546333    0.0800
47     H47    -1.4653   -4.2179    1.8774 H        1 ZINC001248546333    0.0900
48     H48     0.0049   -0.1661    2.1285 H        1 ZINC001248546333    0.1200
@<TRIPOS>BOND
1     1     2     1
2     1     28    1
3     1     29    1
4     1     30    1
5     2     27    ar
6     2     3     ar
7     3     4     ar
8     3     31    1
9     4     5     ar
10    4     32    1
11    5     6     ar
12    5     33    1
13    6     7     1
14    6     27    ar
15    7     26    1
16    7     8     2
17    8     9     1
18    8     34    1
19    9     10    1
20    9     35    1
21    9     36    1
22    10    11    am
23    10    25    1
24    11    12    2
25    11    13    am
26    13    14    1
27    13    37    1
28    14    15    1
29    14    38    1
30    14    39    1
31    15    23    1
32    15    16    2
33    16    17    1
34    16    40    1
35    17    18    1
36    17    22    2
37    18    19    1
38    18    20    1
39    18    21    1
40    22    23    1
41    23    24    1
42    24    41    1
43    24    42    1
44    24    43    1
45    25    26    1
46    25    44    1
47    25    45    1
48    26    46    1
49    26    47    1
50    27    48    1
@<TRIPOS>SUBSTRUCTURE
1   ZINC001248546333 1     RESIDUE    1   A     ZIN   1
@<TRIPOS>MOLECULE
ZINC000179211660
38	39	1	0	0
SMALL
USER_CHARGES
@<TRIPOS>ATOM
1      C1     -0.0390    1.4111    0.0086 C.3      1 ZINC000179211660    0.0300
2      O2     -0.0067   -0.0175   -0.0011 O.3      1 ZINC000179211660   -0.2700
3      C3     -1.2034   -0.6617    0.0025 C.ar     1 ZINC000179211660    0.1500
4      C4     -2.3842    0.0661    0.0094 C.ar     1 ZINC000179211660   -0.2200
5      C5     -3.5995   -0.5912    0.0126 C.ar     1 ZINC000179211660   -0.0700
6      C6     -3.6393   -1.9730    0.0094 C.ar     1 ZINC000179211660   -0.1700
7      C7     -2.4635   -2.7009    0.0030 C.ar     1 ZINC000179211660   -0.0700
8      C8     -1.2460   -2.0486   -0.0064 C.ar     1 ZINC000179211660   -0.1500
9      C9      0.0349   -2.8424   -0.0139 C.3      1 ZINC000179211660    0.1800
10     N10     0.5857   -2.8935    1.3427 N.am     1 ZINC000179211660   -0.6200
11     C11     0.2044   -3.9807    2.2476 C.3      1 ZINC000179211660    0.0700
12     C12     1.4431   -1.9403    1.7582 C.2      1 ZINC000179211660    0.7000
13     O13     1.7595   -1.0379    1.0072 O.2      1 ZINC000179211660   -0.5300
14     N14     1.9498   -1.9873    3.0062 N.am     1 ZINC000179211660   -0.6800
15     C15     2.9295   -1.0663    3.3997 C.ar     1 ZINC000179211660    0.1900
16     C16     3.7417   -0.4667    2.4479 C.ar     1 ZINC000179211660   -0.1400
17     C17     4.7083    0.4430    2.8391 C.ar     1 ZINC000179211660    0.1500
18     F18     5.4995    1.0273    1.9129 F        1 ZINC000179211660   -0.1100
19     C19     4.8649    0.7554    4.1795 C.ar     1 ZINC000179211660   -0.1300
20     Br20    6.1864    1.9995    4.7106 Br       1 ZINC000179211660   -0.0100
21     C21     4.0558    0.1590    5.1304 C.ar     1 ZINC000179211660   -0.0700
22     C22     3.0857   -0.7472    4.7442 C.ar     1 ZINC000179211660    0.0600
23     F23     2.2960   -1.3291    5.6732 F        1 ZINC000179211660   -0.1300
24     H24     0.9802    1.7976    0.0045 H        1 ZINC000179211660    0.1000
25     H25    -0.5668    1.7686   -0.8755 H        1 ZINC000179211660    0.0500
26     H26    -0.5550    1.7568    0.9044 H        1 ZINC000179211660    0.0500
27     H27    -2.3536    1.1457    0.0126 H        1 ZINC000179211660    0.1300
28     H28    -4.5191   -0.0249    0.0180 H        1 ZINC000179211660    0.1200
29     H29    -4.5902   -2.4850    0.0123 H        1 ZINC000179211660    0.1200
30     H30    -2.4972   -3.7804    0.0009 H        1 ZINC000179211660    0.1300
31     H31    -0.1674   -3.8552   -0.3623 H        1 ZINC000179211660    0.0900
32     H32     0.7539   -2.3658   -0.6802 H        1 ZINC000179211660    0.1000
33     H33     0.8997   -4.8119    2.1301 H        1 ZINC000179211660    0.0600
34     H34     0.2350   -3.6241    3.2771 H        1 ZINC000179211660    0.0600
35     H35    -0.8052   -4.3151    2.0087 H        1 ZINC000179211660    0.0800
36     H36     1.6362   -2.6588    3.6320 H        1 ZINC000179211660    0.4100
37     H37     3.6199   -0.7099    1.4028 H        1 ZINC000179211660    0.1800
38     H38     4.1799    0.4043    6.1748 H        1 ZINC000179211660    0.1600
@<TRIPOS>BOND
1     1     2     1
2     1     24    1
3     1     25    1
4     1     26    1
5     2     3     1
6     3     8     ar
7     3     4     ar
8     4     5     ar
9     4     27    1
10    5     6     ar
11    5     28    1
12    6     7     ar
13    6     29    1
14    7     8     ar
15    7     30    1
16    8     9     1
17    9     10    1
18    9     31    1
19    9     32    1
20    10    11    1
21    10    12    am
22    11    33    1
23    11    34    1
24    11    35    1
25    12    13    2
26    12    14    am
27    14    15    1
28    14    36    1
29    15    22    ar
30    15    16    ar
31    16    17    ar
32    16    37    1
33    17    18    1
34    17    19    ar
35    19    20    1
36    19    21    ar
37    21    22    ar
38    21    38    1
39    22    23    1
@<TRIPOS>SUBSTRUCTURE
1   ZINC000179211660 1     RESIDUE    1   A     ZIN   1
@<TRIPOS>MOLECULE
ZINC001436455587
42	42	1	0	0
SMALL
USER_CHARGES
@<TRIPOS>ATOM
1      C1     -0.1981    1.5807   -1.7696 C.3      1 ZINC001436455587   -0.1500
2      C2     -0.1072    0.1453   -1.2480 C.3      1 ZINC001436455587   -0.1300
3      C3      0.8927   -0.6432   -2.0962 C.3      1 ZINC001436455587   -0.1400
4      C4      1.0036   -2.0711   -1.5580 C.3      1 ZINC001436455587    0.0800
5      H5      1.2414   -2.0411   -0.4946 H        1 ZINC001436455587    0.0700
6      C6      2.1114   -2.8141   -2.3075 C.3      1 ZINC001436455587    0.1200
7      N7      2.2176   -4.1813   -1.7921 N.am     1 ZINC001436455587   -0.7200
8      C8      3.1329   -5.0262   -2.3068 C.2      1 ZINC001436455587    0.5200
9      O9      3.8685   -4.6547   -3.1965 O.2      1 ZINC001436455587   -0.5100
10     C10     3.2422   -6.4327   -1.7766 C.3      1 ZINC001436455587    0.0600
11     H11     2.2702   -6.9218   -1.8410 H        1 ZINC001436455587    0.1000
12     C12     3.6975   -6.3933   -0.3165 C.3      1 ZINC001436455587   -0.1800
13     O13     4.1947   -7.1618   -2.5531 O.3      1 ZINC001436455587   -0.2700
14     C14     4.0715   -8.5155   -2.5690 C.ar     1 ZINC001436455587    0.1600
15     C15     3.0362   -9.1265   -1.8779 C.ar     1 ZINC001436455587   -0.2000
16     C16     2.9122  -10.5027   -1.8955 C.ar     1 ZINC001436455587   -0.0500
17     C17     3.8202  -11.2713   -2.6016 C.ar     1 ZINC001436455587   -0.0700
18     Cl18    3.6622  -13.0000   -2.6214 Cl       1 ZINC001436455587   -0.0600
19     C19     4.8541  -10.6640   -3.2925 C.ar     1 ZINC001436455587   -0.0400
20     C20     4.9786   -9.2877   -3.2818 C.ar     1 ZINC001436455587   -0.1200
21     Br21    6.3914   -8.4579   -4.2259 Br       1 ZINC001436455587   -0.0100
22     O22    -0.2391   -2.7502   -1.7492 O.3      1 ZINC001436455587   -0.3800
23     C23    -1.0374   -2.8451   -0.5677 C.3      1 ZINC001436455587    0.0200
24     H24     0.7826    2.0526   -1.7077 H        1 ZINC001436455587    0.0500
25     H25    -0.5311    1.5698   -2.8075 H        1 ZINC001436455587    0.0600
26     H26    -0.9104    2.1425   -1.1654 H        1 ZINC001436455587    0.0600
27     H27     0.2259    0.1562   -0.2102 H        1 ZINC001436455587    0.0600
28     H28    -1.0878   -0.3266   -1.3100 H        1 ZINC001436455587    0.0700
29     H29     0.5498   -0.6705   -3.1305 H        1 ZINC001436455587    0.0800
30     H30     1.8688   -0.1605   -2.0496 H        1 ZINC001436455587    0.0800
31     H31     1.8736   -2.8441   -3.3709 H        1 ZINC001436455587    0.0800
32     H32     3.0593   -2.2961   -2.1617 H        1 ZINC001436455587    0.0800
33     H33     1.6292   -4.4785   -1.0805 H        1 ZINC001436455587    0.4000
34     H34     3.7766   -7.4106    0.0670 H        1 ZINC001436455587    0.0800
35     H35     4.6695   -5.9042   -0.2520 H        1 ZINC001436455587    0.0800
36     H36     2.9709   -5.8372    0.2759 H        1 ZINC001436455587    0.0800
37     H37     2.3274   -8.5272   -1.3259 H        1 ZINC001436455587    0.1500
38     H38     2.1059  -10.9787   -1.3573 H        1 ZINC001436455587    0.1400
39     H39     5.5618  -11.2657   -3.8434 H        1 ZINC001436455587    0.1500
40     H40    -1.3442   -1.8469   -0.2554 H        1 ZINC001436455587    0.0500
41     H41    -1.9211   -3.4490   -0.7739 H        1 ZINC001436455587    0.0900
42     H42    -0.4557   -3.3118    0.2272 H        1 ZINC001436455587    0.0400
@<TRIPOS>BOND
1     1     2     1
2     1     24    1
3     1     25    1
4     1     26    1
5     2     3     1
6     2     27    1
7     2     28    1
8     3     4     1
9     3     29    1
10    3     30    1
11    4     5     1
12    4     6     1
13    4     22    1
14    6     7     1
15    6     31    1
16    6     32    1
17    7     8     am
18    7     33    1
19    8     9     2
20    8     10    1
21    10    11    1
22    10    12    1
23    10    13    1
24    12    34    1
25    12    35    1
26    12    36    1
27    13    14    1
28    14    20    ar
29    14    15    ar
30    15    16    ar
31    15    37    1
32    16    17    ar
33    16    38    1
34    17    18    1
35    17    19    ar
36    19    20    ar
37    19    39    1
38    20    21    1
39    22    23    1
40    23    40    1
41    23    41    1
42    23    42    1
@<TRIPOS>SUBSTRUCTURE
1   ZINC001436455587 1     RESIDUE    1   A     ZIN   1
@<TRIPOS>MOLECULE
ZINC000482187991
52	53	1	0	0
SMALL
USER_CHARGES
@<TRIPOS>ATOM
1      C1     -0.0173    1.4248    0.0099 C.3      1 ZINC000482187991    0.0200
2      O2      0.0021   -0.0041    0.0020 O.3      1 ZINC000482187991   -0.3000
3      C3     -1.2012   -0.6379    0.0101 C.ar     1 ZINC000482187991    0.1400
4      C4     -2.3691    0.0993    0.0194 C.ar     1 ZINC000482187991   -0.1700
5      C5     -3.6073   -0.5541    0.0273 C.ar     1 ZINC000482187991   -0.1000
6      C6     -4.8514    0.2262    0.0368 C.2      1 ZINC000482187991    0.4000
7      O7     -4.8070    1.4384    0.0378 O.2      1 ZINC000482187991   -0.4500
8      C8     -6.1832   -0.4790    0.0452 C.3      1 ZINC000482187991   -0.1500
9      C9     -7.3089    0.5571    0.0541 C.3      1 ZINC000482187991   -0.1300
10     C10    -8.6407   -0.1481    0.0626 C.2      1 ZINC000482187991    0.5200
11     O11    -8.6851   -1.3601    0.0615 O.2      1 ZINC000482187991   -0.5200
12     N12    -9.7824    0.5680    0.0712 N.am     1 ZINC000482187991   -0.7200
13     C13   -11.0771   -0.1176    0.0795 C.3      1 ZINC000482187991    0.1500
14     H14   -11.0083   -1.0309   -0.5115 H        1 ZINC000482187991    0.1300
15     C15   -12.1277    0.7860   -0.5128 C.ar     1 ZINC000482187991   -0.1100
16     C16   -12.1201    2.1376   -0.2230 C.ar     1 ZINC000482187991   -0.1000
17     C17   -13.0838    2.9664   -0.7662 C.ar     1 ZINC000482187991   -0.1200
18     C18   -14.0550    2.4437   -1.5996 C.ar     1 ZINC000482187991   -0.1100
19     C19   -14.0621    1.0922   -1.8901 C.ar     1 ZINC000482187991   -0.1200
20     C20   -13.0958    0.2641   -1.3503 C.ar     1 ZINC000482187991   -0.1000
21     C21   -11.4590   -0.4689    1.5188 C.3      1 ZINC000482187991    0.2500
22     F22   -10.4836   -1.3077    2.0685 F        1 ZINC000482187991   -0.1900
23     F23   -11.5473    0.7033    2.2772 F        1 ZINC000482187991   -0.2000
24     C24    -3.6566   -1.9534    0.0256 C.ar     1 ZINC000482187991   -0.1900
25     C25    -2.4844   -2.6839    0.0163 C.ar     1 ZINC000482187991    0.1400
26     O26    -2.5312   -4.0431    0.0142 O.3      1 ZINC000482187991   -0.3000
27     C27    -3.8260   -4.6476    0.0221 C.3      1 ZINC000482187991    0.0200
28     C28    -1.2542   -2.0301    0.0031 C.ar     1 ZINC000482187991    0.0600
29     O29    -0.1035   -2.7519   -0.0065 O.3      1 ZINC000482187991   -0.3100
30     C30     0.4338   -3.0991   -1.2843 C.3      1 ZINC000482187991    0.0400
31     H31     1.0053    1.8021    0.0021 H        1 ZINC000482187991    0.1100
32     H32    -0.5445    1.7859   -0.8732 H        1 ZINC000482187991    0.0600
33     H33    -0.5275    1.7763    0.9067 H        1 ZINC000482187991    0.0600
34     H34    -2.3272    1.1785    0.0210 H        1 ZINC000482187991    0.1500
35     H35    -6.2700   -1.1022   -0.8449 H        1 ZINC000482187991    0.1100
36     H36    -6.2577   -1.1041    0.9350 H        1 ZINC000482187991    0.1100
37     H37    -7.2221    1.1803    0.9442 H        1 ZINC000482187991    0.1000
38     H38    -7.2345    1.1822   -0.8357 H        1 ZINC000482187991    0.1000
39     H39    -9.7469    1.5374    0.0721 H        1 ZINC000482187991    0.4100
40     H40   -11.3613    2.5460    0.4281 H        1 ZINC000482187991    0.1200
41     H41   -13.0783    4.0223   -0.5393 H        1 ZINC000482187991    0.1300
42     H42   -14.8084    3.0911   -2.0235 H        1 ZINC000482187991    0.1300
43     H43   -14.8211    0.6838   -2.5409 H        1 ZINC000482187991    0.1300
44     H44   -13.1014   -0.7917   -1.5773 H        1 ZINC000482187991    0.1300
45     H45   -12.4223   -0.9790    1.5249 H        1 ZINC000482187991    0.1200
46     H46    -4.6099   -2.4608    0.0320 H        1 ZINC000482187991    0.1500
47     H47    -4.3665   -4.3373    0.9164 H        1 ZINC000482187991    0.0600
48     H48    -4.3788   -4.3342   -0.8636 H        1 ZINC000482187991    0.0600
49     H49    -3.7205   -5.7325    0.0195 H        1 ZINC000482187991    0.1100
50     H50    -0.2925   -3.6985   -1.8332 H        1 ZINC000482187991    0.0500
51     H51     0.6532   -2.1906   -1.8453 H        1 ZINC000482187991    0.0500
52     H52     1.3506   -3.6730   -1.1492 H        1 ZINC000482187991    0.1000
@<TRIPOS>BOND
1     1     2     1
2     1     31    1
3     1     32    1
4     1     33    1
5     2     3     1
6     3     28    ar
7     3     4     ar
8     4     5     ar
9     4     34    1
10    5     6     1
11    5     24    ar
12    6     7     2
13    6     8     1
14    8     9     1
15    8     35    1
16    8     36    1
17    9     10    1
18    9     37    1
19    9     38    1
20    10    11    2
21    10    12    am
22    12    13    1
23    12    39    1
24    13    14    1
25    13    15    1
26    13    21    1
27    15    20    ar
28    15    16    ar
29    16    17    ar
30    16    40    1
31    17    18    ar
32    17    41    1
33    18    19    ar
34    18    42    1
35    19    20    ar
36    19    43    1
37    20    44    1
38    21    22    1
39    21    23    1
40    21    45    1
41    24    25    ar
42    24    46    1
43    25    26    1
44    25    28    ar
45    26    27    1
46    27    47    1
47    27    48    1
48    27    49    1
49    28    29    1
50    29    30    1
51    30    50    1
52    30    51    1
53    30    52    1
@<TRIPOS>SUBSTRUCTURE
1   ZINC000482187991 1     RESIDUE    1   A     ZIN   1
@<TRIPOS>MOLECULE
ZINC001371344729
48	49	1	0	0
SMALL
USER_CHARGES
@<TRIPOS>ATOM
1      C1      5.0502   -0.3991   -0.2171 C.3      1 ZINC001371344729   -0.1800
2      C2      5.1474    1.0797   -0.5971 C.3      1 ZINC001371344729    0.1000
3      N3      4.2253    1.3622   -1.6999 N.am     1 ZINC001371344729   -0.6100
4      C4      2.9596    1.7449   -1.4388 C.2      1 ZINC001371344729    0.5100
5      O5      2.1962    1.9788   -2.3517 O.2      1 ZINC001371344729   -0.5200
6      C6      2.4930    1.8822   -0.0124 C.3      1 ZINC001371344729   -0.0600
7      C7      1.0508    2.3190    0.0045 C.2      1 ZINC001371344729   -0.0100
8      C8     -0.0184    1.5028    0.0103 C.2      1 ZINC001371344729   -0.1600
9      C9      0.0021   -0.0041    0.0020 C.3      1 ZINC001371344729   -0.0800
10     C10    -1.1650    2.3298    0.0195 C.2      1 ZINC001371344729   -0.2100
11     C11    -0.7279    3.6019    0.0284 C.2      1 ZINC001371344729   -0.0300
12     O12     0.6150    3.5893    0.0155 O.3      1 ZINC001371344729   -0.1700
13     C13     4.6789    1.2288   -3.0865 C.3      1 ZINC001371344729    0.1200
14     H14     3.8608    1.4786   -3.7620 H        1 ZINC001371344729    0.1100
15     C15     5.1278   -0.2118   -3.3398 C.3      1 ZINC001371344729   -0.1600
16     C16     5.8521    2.1794   -3.3330 C.3      1 ZINC001371344729    0.1100
17     N17     5.4579    3.5445   -2.9761 N.am     1 ZINC001371344729   -0.7200
18     C18     6.3369    4.5571   -3.1120 C.2      1 ZINC001371344729    0.5900
19     O19     7.4574    4.3375   -3.5307 O.2      1 ZINC001371344729   -0.5300
20     C20     5.9403    5.9303   -2.7530 C.2      1 ZINC001371344729   -0.2300
21     C21     4.7292    6.3415   -2.2785 C.2      1 ZINC001371344729    0.0200
22     O22     4.7814    7.6617   -2.0766 O.3      1 ZINC001371344729   -0.1700
23     C23     5.9868    8.1497   -2.4088 C.2      1 ZINC001371344729   -0.0100
24     C24     6.3999    9.5959   -2.3151 C.3      1 ZINC001371344729   -0.0800
25     C25     6.7652    7.1444   -2.8375 C.2      1 ZINC001371344729   -0.1600
26     H26     5.3142   -1.0135   -1.0779 H        1 ZINC001371344729    0.0700
27     H27     5.7363   -0.6093    0.6034 H        1 ZINC001371344729    0.0700
28     H28     4.0309   -0.6282    0.0938 H        1 ZINC001371344729    0.0600
29     H29     6.1667    1.3087   -0.9081 H        1 ZINC001371344729    0.0900
30     H30     4.8834    1.6941    0.2637 H        1 ZINC001371344729    0.0800
31     H31     3.1038    2.6256    0.4998 H        1 ZINC001371344729    0.1100
32     H32     2.5878    0.9221    0.4949 H        1 ZINC001371344729    0.1200
33     H33     0.0168   -0.3729    1.0276 H        1 ZINC001371344729    0.0700
34     H34    -0.8878   -0.3767   -0.5053 H        1 ZINC001371344729    0.0700
35     H35     0.8920   -0.3525   -0.5222 H        1 ZINC001371344729    0.0600
36     H36    -2.1944    2.0029    0.0219 H        1 ZINC001371344729    0.1500
37     H37    -1.3512    4.4839    0.0385 H        1 ZINC001371344729    0.2000
38     H38     4.2919   -0.8890   -3.1642 H        1 ZINC001371344729    0.0700
39     H39     5.4653   -0.3111   -4.3715 H        1 ZINC001371344729    0.0700
40     H40     5.9459   -0.4615   -2.6642 H        1 ZINC001371344729    0.0700
41     H41     6.7013    1.8748   -2.7212 H        1 ZINC001371344729    0.0800
42     H42     6.1322    2.1455   -4.3858 H        1 ZINC001371344729    0.0800
43     H43     4.5642    3.7196   -2.6421 H        1 ZINC001371344729    0.4000
44     H44     3.8742    5.7076   -2.0951 H        1 ZINC001371344729    0.2100
45     H45     6.1715   10.1006   -3.2539 H        1 ZINC001371344729    0.0800
46     H46     5.8563   10.0772   -1.5022 H        1 ZINC001371344729    0.0800
47     H47     7.4709    9.6560   -2.1216 H        1 ZINC001371344729    0.0900
48     H48     7.7887    7.2130   -3.1754 H        1 ZINC001371344729    0.1600
@<TRIPOS>BOND
1     1     2     1
2     1     26    1
3     1     27    1
4     1     28    1
5     2     3     1
6     2     29    1
7     2     30    1
8     3     4     am
9     3     13    1
10    4     5     2
11    4     6     1
12    6     7     1
13    6     31    1
14    6     32    1
15    7     12    1
16    7     8     2
17    8     9     1
18    8     10    1
19    9     33    1
20    9     34    1
21    9     35    1
22    10    11    2
23    10    36    1
24    11    12    1
25    11    37    1
26    13    14    1
27    13    15    1
28    13    16    1
29    15    38    1
30    15    39    1
31    15    40    1
32    16    17    1
33    16    41    1
34    16    42    1
35    17    18    am
36    17    43    1
37    18    19    2
38    18    20    1
39    20    25    1
40    20    21    2
41    21    22    1
42    21    44    1
43    22    23    1
44    23    24    1
45    23    25    2
46    24    45    1
47    24    46    1
48    24    47    1
49    25    48    1
@<TRIPOS>SUBSTRUCTURE
1   ZINC001371344729 1     RESIDUE    1   A     ZIN   1
@<TRIPOS>MOLECULE
ZINC001119787528
49	52	1	0	0
SMALL
USER_CHARGES
@<TRIPOS>ATOM
1      C1     -0.4213    1.6593    0.6706 C.3      1 ZINC001119787528   -0.1700
2      C2     -0.2563    0.1505    0.4778 C.3      1 ZINC001119787528    0.1000
3      N3     -1.5750   -0.4694    0.3256 N.pl3    1 ZINC001119787528   -0.4500
4      C4     -2.3169   -1.0327    1.3068 C.2      1 ZINC001119787528    0.1800
5      N5     -3.4308   -1.4799    0.7879 N.2      1 ZINC001119787528   -0.4800
6      C6     -3.4373   -1.2212   -0.5215 C.2      1 ZINC001119787528   -0.0200
7      C7     -2.2882   -0.5823   -0.8294 C.2      1 ZINC001119787528   -0.0100
8      C8     -1.9107   -0.1066   -2.2077 C.3      1 ZINC001119787528   -0.0600
9      C9     -2.7828   -0.8352   -3.2384 C.3      1 ZINC001119787528    0.1400
10     N10    -4.1783   -0.8340   -2.7748 N.am     1 ZINC001119787528   -0.6200
11     C11    -5.1352   -0.1853   -3.4676 C.2      1 ZINC001119787528    0.7200
12     O12    -4.8353    0.4855   -4.4361 O.2      1 ZINC001119787528   -0.5600
13     N13    -6.4246   -0.2805   -3.0869 N.am     1 ZINC001119787528   -0.6600
14     C14    -7.4231    0.2948   -3.8642 C.ar     1 ZINC001119787528    0.4200
15     C15    -7.1585    0.6969   -5.1736 C.ar     1 ZINC001119787528   -0.2500
16     C16    -8.1846    1.2632   -5.9060 C.ar     1 ZINC001119787528    0.1600
17     N17    -9.3768    1.4048   -5.3455 N.ar     1 ZINC001119787528   -0.5300
18     C18    -9.5945    1.0145   -4.1056 C.ar     1 ZINC001119787528    0.3500
19     C19   -10.9673    1.1956   -3.5109 C.3      1 ZINC001119787528   -0.0100
20     C20   -11.7986   -0.0315   -3.7835 C.ar     1 ZINC001119787528   -0.0800
21     C21   -12.5559   -0.1109   -4.9372 C.ar     1 ZINC001119787528   -0.1000
22     C22   -13.3185   -1.2364   -5.1873 C.ar     1 ZINC001119787528   -0.1200
23     C23   -13.3235   -2.2827   -4.2839 C.ar     1 ZINC001119787528   -0.1200
24     C24   -12.5654   -2.2036   -3.1306 C.ar     1 ZINC001119787528   -0.1200
25     C25   -11.7995   -1.0799   -2.8826 C.ar     1 ZINC001119787528   -0.1000
26     N26    -8.6467    0.4655   -3.3736 N.ar     1 ZINC001119787528   -0.5500
27     C27    -4.5077   -1.5555   -1.5333 C.3      1 ZINC001119787528    0.2000
28     H28     0.5598    2.1206    0.7839 H        1 ZINC001119787528    0.0800
29     H29    -0.9243    2.0838   -0.1983 H        1 ZINC001119787528    0.0600
30     H30    -1.0170    1.8485    1.5636 H        1 ZINC001119787528    0.0600
31     H31     0.3394   -0.0387   -0.4152 H        1 ZINC001119787528    0.0900
32     H32     0.2466   -0.2739    1.3468 H        1 ZINC001119787528    0.1000
33     H33    -2.0354   -1.1020    2.3472 H        1 ZINC001119787528    0.2100
34     H34    -2.0780    0.9679   -2.2819 H        1 ZINC001119787528    0.0800
35     H35    -0.8603   -0.3286   -2.3958 H        1 ZINC001119787528    0.0900
36     H36    -2.7173   -0.3230   -4.1983 H        1 ZINC001119787528    0.1100
37     H37    -2.4361   -1.8627   -3.3479 H        1 ZINC001119787528    0.0800
38     H38    -6.6557   -0.7503   -2.2704 H        1 ZINC001119787528    0.4200
39     H39    -6.1762    0.5692   -5.6040 H        1 ZINC001119787528    0.1800
40     H40    -8.0166    1.5867   -6.9227 H        1 ZINC001119787528    0.1700
41     H41   -10.8803    1.3437   -2.4345 H        1 ZINC001119787528    0.1000
42     H42   -11.4459    2.0658   -3.9599 H        1 ZINC001119787528    0.1000
43     H43   -12.5521    0.7066   -5.6430 H        1 ZINC001119787528    0.1300
44     H44   -13.9108   -1.2982   -6.0883 H        1 ZINC001119787528    0.1200
45     H45   -13.9198   -3.1617   -4.4789 H        1 ZINC001119787528    0.1200
46     H46   -12.5696   -3.0209   -2.4246 H        1 ZINC001119787528    0.1200
47     H47   -11.2073   -1.0182   -1.9816 H        1 ZINC001119787528    0.1200
48     H48    -4.5129   -2.6296   -1.7188 H        1 ZINC001119787528    0.0900
49     H49    -5.4834   -1.2368   -1.1668 H        1 ZINC001119787528    0.0900
@<TRIPOS>BOND
1     1     2     1
2     1     28    1
3     1     29    1
4     1     30    1
5     2     3     1
6     2     31    1
7     2     32    1
8     3     7     1
9     3     4     1
10    4     5     2
11    4     33    1
12    5     6     1
13    6     27    1
14    6     7     2
15    7     8     1
16    8     9     1
17    8     34    1
18    8     35    1
19    9     10    1
20    9     36    1
21    9     37    1
22    10    11    am
23    10    27    1
24    11    12    2
25    11    13    am
26    13    14    1
27    13    38    1
28    14    26    ar
29    14    15    ar
30    15    16    ar
31    15    39    1
32    16    17    ar
33    16    40    1
34    17    18    ar
35    18    19    1
36    18    26    ar
37    19    20    1
38    19    41    1
39    19    42    1
40    20    25    ar
41    20    21    ar
42    21    22    ar
43    21    43    1
44    22    23    ar
45    22    44    1
46    23    24    ar
47    23    45    1
48    24    25    ar
49    24    46    1
50    25    47    1
51    27    48    1
52    27    49    1
@<TRIPOS>SUBSTRUCTURE
1   ZINC001119787528 1     RESIDUE    1   A     ZIN   1
@<TRIPOS>MOLECULE
ZINC000329637067
52	54	1	0	0
SMALL
USER_CHARGES
@<TRIPOS>ATOM
1      C1     -0.7722    2.1330    0.5779 C.3      1 ZINC000329637067   -0.1300
2      C2     -0.5152    0.6829    0.2581 C.2      1 ZINC000329637067    0.2200
3      C3     -0.6713    0.2198   -1.0114 C.2      1 ZINC000329637067   -0.2900
4      C4     -0.4255   -1.1305   -1.2771 C.2      1 ZINC000329637067    0.2800
5      C5     -0.5910   -1.6676   -2.6754 C.3      1 ZINC000329637067   -0.1200
6      N6     -0.0483   -1.9324   -0.3020 N.2      1 ZINC000329637067   -0.5500
7      C7      0.1033   -1.4720    0.9422 C.2      1 ZINC000329637067    0.6400
8      O8      0.4534   -2.2350    1.8268 O.2      1 ZINC000329637067   -0.5300
9      N9     -0.1193   -0.1766    1.2330 N.am     1 ZINC000329637067   -0.5000
10     C10     0.0542    0.3048    2.6057 C.3      1 ZINC000329637067    0.0700
11     C11     1.4870    0.7230    2.8141 C.2      1 ZINC000329637067    0.5100
12     O12     2.2846    0.6283    1.9053 O.2      1 ZINC000329637067   -0.5200
13     N13     1.8820    1.2023    4.0102 N.am     1 ZINC000329637067   -0.6100
14     C14     0.9288    1.3172    5.1224 C.3      1 ZINC000329637067    0.1000
15     C15     1.5036    0.5894    6.3416 C.3      1 ZINC000329637067   -0.1400
16     C16     2.8978    1.1404    6.6492 C.3      1 ZINC000329637067   -0.1000
17     C17     3.8224    0.8885    5.4561 C.3      1 ZINC000329637067   -0.1200
18     H18     3.8698   -0.1812    5.2520 H        1 ZINC000329637067    0.1000
19     C19     5.2035    1.4017    5.7728 C.2      1 ZINC000329637067    0.5300
20     O20     5.3949    2.0431    6.7841 O.2      1 ZINC000329637067   -0.5300
21     N21     6.2259    1.1479    4.9321 N.am     1 ZINC000329637067   -0.6200
22     C22     7.5675    1.6979    5.1833 C.3      1 ZINC000329637067    0.0800
23     C23     8.5835    0.5534    5.0953 C.3      1 ZINC000329637067    0.0500
24     O24     8.4035   -0.1417    3.8590 O.3      1 ZINC000329637067   -0.3800
25     C25     7.1245   -0.7648    3.7187 C.3      1 ZINC000329637067    0.0500
26     C26     6.0351    0.3076    3.7393 C.3      1 ZINC000329637067    0.0700
27     C27     3.2753    1.6140    4.2286 C.3      1 ZINC000329637067    0.1200
28     H28     0.1141    2.5652    1.0425 H        1 ZINC000329637067    0.0900
29     H29    -1.0006    2.6728   -0.3411 H        1 ZINC000329637067    0.1000
30     H30    -1.6159    2.2098    1.2637 H        1 ZINC000329637067    0.0900
31     H31    -0.9813    0.8860   -1.8029 H        1 ZINC000329637067    0.1600
32     H32     0.3531   -1.5785   -3.2129 H        1 ZINC000329637067    0.1000
33     H33    -0.8854   -2.7161   -2.6295 H        1 ZINC000329637067    0.0900
34     H34    -1.3604   -1.0966   -3.1952 H        1 ZINC000329637067    0.0900
35     H35    -0.6019    1.1581    2.7772 H        1 ZINC000329637067    0.1200
36     H36    -0.1968   -0.4929    3.3049 H        1 ZINC000329637067    0.1300
37     H37     0.7742    2.3688    5.3639 H        1 ZINC000329637067    0.0800
38     H38    -0.0202    0.8620    4.8389 H        1 ZINC000329637067    0.0900
39     H39     0.8519    0.7482    7.2008 H        1 ZINC000329637067    0.0900
40     H40     1.5727   -0.4775    6.1292 H        1 ZINC000329637067    0.0700
41     H41     2.8314    2.2120    6.8373 H        1 ZINC000329637067    0.0800
42     H42     3.2990    0.6413    7.5313 H        1 ZINC000329637067    0.0800
43     H43     7.8005    2.4541    4.4337 H        1 ZINC000329637067    0.0800
44     H44     7.6014    2.1432    6.1776 H        1 ZINC000329637067    0.1000
45     H45     9.5941    0.9593    5.1409 H        1 ZINC000329637067    0.1100
46     H46     8.4291   -0.1353    5.9259 H        1 ZINC000329637067    0.0600
47     H47     7.0854   -1.3071    2.7740 H        1 ZINC000329637067    0.1100
48     H48     6.9648   -1.4582    4.5443 H        1 ZINC000329637067    0.0600
49     H49     5.0542   -0.1662    3.7753 H        1 ZINC000329637067    0.1000
50     H50     6.1120    0.9262    2.8451 H        1 ZINC000329637067    0.0800
51     H51     3.8748    1.3574    3.3551 H        1 ZINC000329637067    0.1000
52     H52     3.3103    2.6907    4.3948 H        1 ZINC000329637067    0.0800
@<TRIPOS>BOND
1     1     2     1
2     1     28    1
3     1     29    1
4     1     30    1
5     2     9     1
6     2     3     2
7     3     4     1
8     3     31    1
9     4     5     1
10    4     6     2
11    5     32    1
12    5     33    1
13    5     34    1
14    6     7     1
15    7     8     2
16    7     9     am
17    9     10    1
18    10    11    1
19    10    35    1
20    10    36    1
21    11    12    2
22    11    13    am
23    13    27    1
24    13    14    1
25    14    15    1
26    14    37    1
27    14    38    1
28    15    16    1
29    15    39    1
30    15    40    1
31    16    17    1
32    16    41    1
33    16    42    1
34    17    18    1
35    17    19    1
36    17    27    1
37    19    20    2
38    19    21    am
39    21    26    1
40    21    22    1
41    22    23    1
42    22    43    1
43    22    44    1
44    23    24    1
45    23    45    1
46    23    46    1
47    24    25    1
48    25    26    1
49    25    47    1
50    25    48    1
51    26    49    1
52    26    50    1
53    27    51    1
54    27    52    1
@<TRIPOS>SUBSTRUCTURE
1   ZINC000329637067 1     RESIDUE    1   A     ZIN   1
@<TRIPOS>MOLECULE
ZINC001070580102
48	50	1	0	0
SMALL
USER_CHARGES
@<TRIPOS>ATOM
1      C1      0.0109    1.1690   -0.5000 C.3      1 ZINC001070580102   -0.0800
2      C2     -0.0313   -0.3374   -0.5015 C.2      1 ZINC001070580102   -0.0100
3      C3     -1.1434   -1.0846   -0.4286 C.2      1 ZINC001070580102   -0.1900
4      C4     -0.6932   -2.4838   -0.4639 C.2      1 ZINC001070580102   -0.2500
5      C5     -1.5353   -3.6922   -0.4117 C.2      1 ZINC001070580102    0.6000
6      O6     -1.0213   -4.7936   -0.4506 O.2      1 ZINC001070580102   -0.5300
7      N7     -2.8750   -3.5765   -0.3207 N.am     1 ZINC001070580102   -0.7200
8      C8     -3.7120   -4.7777   -0.2688 C.3      1 ZINC001070580102    0.2000
9      C9     -5.1612   -4.3763   -0.1694 C.2      1 ZINC001070580102    0.2600
10     N10    -5.8030   -4.0816    0.9320 N.2      1 ZINC001070580102   -0.5100
11     C11    -7.0677   -3.7721    0.6491 C.2      1 ZINC001070580102    0.2300
12     C12    -8.1184   -3.3771    1.6545 C.3      1 ZINC001070580102    0.1400
13     H13    -7.6400   -3.1239    2.6006 H        1 ZINC001070580102    0.0800
14     C14    -9.0866   -4.5438    1.8674 C.3      1 ZINC001070580102    0.0800
15     O15   -10.1238   -4.1384    2.7646 O.3      1 ZINC001070580102   -0.3800
16     C16   -10.8710   -3.0077    2.3078 C.3      1 ZINC001070580102    0.0600
17     C17    -9.9209   -1.8254    2.0994 C.3      1 ZINC001070580102    0.0200
18     N18    -8.8635   -2.2127    1.1542 N.3      1 ZINC001070580102   -0.5200
19     C19    -7.9612   -1.0856    0.8830 C.3      1 ZINC001070580102    0.0600
20     C20    -8.6375   -0.1124   -0.0847 C.3      1 ZINC001070580102    0.0800
21     O21    -9.7603    0.4949    0.5577 O.3      1 ZINC001070580102   -0.5700
22     N22    -7.2490   -3.8659   -0.6420 N.2      1 ZINC001070580102   -0.2700
23     N23    -6.0184   -4.2528   -1.1975 N.pl3    1 ZINC001070580102   -0.4700
24     C24     0.6668   -2.4297   -0.5559 C.2      1 ZINC001070580102    0.0900
25     C25     1.5936   -3.6161   -0.6232 C.3      1 ZINC001070580102   -0.0900
26     O26     1.0371   -1.1458   -0.5817 O.3      1 ZINC001070580102   -0.1700
27     H27     1.0456    1.5036   -0.5739 H        1 ZINC001070580102    0.0800
28     H28    -0.5555    1.5492   -1.3502 H        1 ZINC001070580102    0.0900
29     H29    -0.4270    1.5438    0.4251 H        1 ZINC001070580102    0.0900
30     H30    -2.1613   -0.7306   -0.3581 H        1 ZINC001070580102    0.1500
31     H31    -3.2850   -2.6980   -0.2897 H        1 ZINC001070580102    0.4000
32     H32    -3.5593   -5.3664   -1.1734 H        1 ZINC001070580102    0.1000
33     H33    -3.4394   -5.3732    0.6025 H        1 ZINC001070580102    0.1100
34     H34    -9.5243   -4.8325    0.9118 H        1 ZINC001070580102    0.0700
35     H35    -8.5480   -5.3908    2.2925 H        1 ZINC001070580102    0.1000
36     H36   -11.3605   -3.2518    1.3650 H        1 ZINC001070580102    0.0600
37     H37   -11.6229   -2.7437    3.0514 H        1 ZINC001070580102    0.1000
38     H38   -10.4766   -0.9785    1.6969 H        1 ZINC001070580102    0.1200
39     H39    -9.4718   -1.5470    3.0528 H        1 ZINC001070580102    0.0400
40     H40    -7.7328   -0.5704    1.8159 H        1 ZINC001070580102    0.0500
41     H41    -7.0384   -1.4579    0.4381 H        1 ZINC001070580102    0.0800
42     H42    -7.9266    0.6593   -0.3799 H        1 ZINC001070580102    0.0500
43     H43    -8.9738   -0.6540   -0.9688 H        1 ZINC001070580102    0.0600
44     H44   -10.2381    1.1254    0.0015 H        1 ZINC001070580102    0.3800
45     H45    -5.8269   -4.4066   -2.1359 H        1 ZINC001070580102    0.4400
46     H46     1.7476   -3.8982   -1.6647 H        1 ZINC001070580102    0.0900
47     H47     2.5510   -3.3552   -0.1721 H        1 ZINC001070580102    0.0800
48     H48     1.1527   -4.4528   -0.0814 H        1 ZINC001070580102    0.1100
@<TRIPOS>BOND
1     1     2     1
2     1     27    1
3     1     28    1
4     1     29    1
5     2     26    1
6     2     3     2
7     3     4     1
8     3     30    1
9     4     5     1
10    4     24    2
11    5     6     2
12    5     7     am
13    7     8     1
14    7     31    1
15    8     9     1
16    8     32    1
17    8     33    1
18    9     23    1
19    9     10    2
20    10    11    1
21    11    12    1
22    11    22    2
23    12    13    1
24    12    18    1
25    12    14    1
26    14    15    1
27    14    34    1
28    14    35    1
29    15    16    1
30    16    17    1
31    16    36    1
32    16    37    1
33    17    18    1
34    17    38    1
35    17    39    1
36    18    19    1
37    19    20    1
38    19    40    1
39    19    41    1
40    20    21    1
41    20    42    1
42    20    43    1
43    21    44    1
44    22    23    1
45    23    45    1
46    24    25    1
47    24    26    1
48    25    46    1
49    25    47    1
50    25    48    1
@<TRIPOS>SUBSTRUCTURE
1   ZINC001070580102 1     RESIDUE    1   A     ZIN   1
@<TRIPOS>MOLECULE
ZINC000474251633
49	52	1	0	0
SMALL
USER_CHARGES
@<TRIPOS>ATOM
1      O1      0.0021   -0.0041    0.0020 O.2      1 ZINC000474251633   -0.5300
2      C2     -0.0144    1.2086    0.0087 C.2      1 ZINC000474251633    0.5100
3      C3      1.2803    1.9798    0.0005 C.3      1 ZINC000474251633    0.1000
4      N4      2.4066    1.0431   -0.0153 N.am     1 ZINC000474251633   -0.7100
5      C5      3.6710    1.5096   -0.0249 C.2      1 ZINC000474251633    0.5900
6      O6      3.8771    2.7087   -0.0204 O.2      1 ZINC000474251633   -0.5000
7      C7      4.7998    0.5707   -0.0407 C.2      1 ZINC000474251633   -0.2300
8      C8      6.0888    0.9304   -0.0458 C.2      1 ZINC000474251633    0.0400
9      Cl9     6.5863    2.5936   -0.0333 Cl       1 ZINC000474251633   -0.0100
10     C10     7.0129   -0.1285   -0.0614 C.ar     1 ZINC000474251633   -0.0900
11     C11     8.4267   -0.0726   -0.0700 C.ar     1 ZINC000474251633   -0.0600
12     C12     9.1624   -1.2159   -0.0852 C.ar     1 ZINC000474251633   -0.1200
13     C13     8.5414   -2.4586   -0.0925 C.ar     1 ZINC000474251633   -0.0800
14     C14     7.1699   -2.5456   -0.0849 C.ar     1 ZINC000474251633   -0.0900
15     C15     6.3916   -1.3837   -0.0688 C.ar     1 ZINC000474251633   -0.1200
16     S16     4.6440   -1.1771   -0.0480 S.3      1 ZINC000474251633    0.1700
17     N17    -1.1906    1.8666    0.0178 N.am     1 ZINC000474251633   -0.7200
18     C18    -2.4492    1.1169    0.0197 C.3      1 ZINC000474251633    0.2100
19     C19    -3.6079    2.0805    0.0305 C.2      1 ZINC000474251633    0.0500
20     N20    -4.1299    2.6407    1.0913 N.2      1 ZINC000474251633   -0.2700
21     N21    -5.1829    3.4665    0.6768 N.pl3    1 ZINC000474251633   -0.3600
22     C22    -6.0355    4.2789    1.5483 C.3      1 ZINC000474251633    0.1500
23     C23    -6.4723    5.5625    0.8126 C.3      1 ZINC000474251633   -0.1400
24     C24    -7.8643    5.2119    0.2308 C.3      1 ZINC000474251633   -0.1300
25     C25    -8.4972    4.3524    1.3532 C.3      1 ZINC000474251633   -0.1200
26     C26    -7.3230    3.5095    1.8920 C.3      1 ZINC000474251633   -0.1400
27     C27    -5.2731    3.3815   -0.6669 C.2      1 ZINC000474251633    0.0600
28     C28    -4.3069    2.5351   -1.0925 C.2      1 ZINC000474251633   -0.2600
29     H29     1.3211    2.6120   -0.8866 H        1 ZINC000474251633    0.1100
30     H30     1.3381    2.6024    0.8933 H        1 ZINC000474251633    0.1100
31     H31     2.2423    0.0871   -0.0189 H        1 ZINC000474251633    0.4100
32     H32     8.9252    0.8854   -0.0648 H        1 ZINC000474251633    0.1300
33     H33    10.2408   -1.1574   -0.0920 H        1 ZINC000474251633    0.1400
34     H34     9.1381   -3.3587   -0.1046 H        1 ZINC000474251633    0.1400
35     H35     6.6917   -3.5140   -0.0913 H        1 ZINC000474251633    0.1400
36     H36    -1.2037    2.8365    0.0232 H        1 ZINC000474251633    0.4100
37     H37    -2.5027    0.4944   -0.8734 H        1 ZINC000474251633    0.0900
38     H38    -2.4943    0.4847    0.9065 H        1 ZINC000474251633    0.0900
39     H39    -5.4987    4.5354    2.4616 H        1 ZINC000474251633    0.1100
40     H40    -6.5497    6.3953    1.5117 H        1 ZINC000474251633    0.0900
41     H41    -5.7726    5.7998    0.0112 H        1 ZINC000474251633    0.0800
42     H42    -8.4498    6.1151    0.0591 H        1 ZINC000474251633    0.0800
43     H43    -7.7645    4.6344   -0.6882 H        1 ZINC000474251633    0.0700
44     H44    -8.9017    4.9897    2.1395 H        1 ZINC000474251633    0.0700
45     H45    -9.2753    3.7066    0.9463 H        1 ZINC000474251633    0.0700
46     H46    -7.3134    2.5317    1.4104 H        1 ZINC000474251633    0.0700
47     H47    -7.4114    3.3933    2.9721 H        1 ZINC000474251633    0.0800
48     H48    -5.9860    3.8997   -1.2913 H        1 ZINC000474251633    0.1700
49     H49    -4.1137    2.2552   -2.1175 H        1 ZINC000474251633    0.1500
@<TRIPOS>BOND
1     1     2     2
2     2     3     1
3     2     17    am
4     3     4     1
5     3     29    1
6     3     30    1
7     4     5     am
8     4     31    1
9     5     6     2
10    5     7     1
11    7     16    1
12    7     8     2
13    8     9     1
14    8     10    1
15    10    15    ar
16    10    11    ar
17    11    12    ar
18    11    32    1
19    12    13    ar
20    12    33    1
21    13    14    ar
22    13    34    1
23    14    15    ar
24    14    35    1
25    15    16    1
26    17    18    1
27    17    36    1
28    18    19    1
29    18    37    1
30    18    38    1
31    19    28    1
32    19    20    2
33    20    21    1
34    21    22    1
35    21    27    1
36    22    26    1
37    22    23    1
38    22    39    1
39    23    24    1
40    23    40    1
41    23    41    1
42    24    25    1
43    24    42    1
44    24    43    1
45    25    26    1
46    25    44    1
47    25    45    1
48    26    46    1
49    26    47    1
50    27    28    2
51    27    48    1
52    28    49    1
@<TRIPOS>SUBSTRUCTURE
1   ZINC000474251633 1     RESIDUE    1   A     ZIN   1
@<TRIPOS>MOLECULE
ZINC000052999724
47	49	1	0	0
SMALL
USER_CHARGES
@<TRIPOS>ATOM
1      C1     -1.2116   -3.1290   -1.1268 C.3      1 ZINC000052999724   -0.1400
2      C2      0.2849   -3.2635   -1.4153 C.3      1 ZINC000052999724   -0.0400
3      C3      0.5003   -4.3020   -2.5180 C.3      1 ZINC000052999724   -0.1400
4      C4      0.8315   -1.9330   -1.8646 C.2      1 ZINC000052999724   -0.0400
5      C5      1.7588   -1.2233   -1.1548 C.2      1 ZINC000052999724   -0.2600
6      C6      2.3510   -1.6359    0.1210 C.2      1 ZINC000052999724    0.6000
7      O7      1.7768   -1.3912    1.1658 O.2      1 ZINC000052999724   -0.5200
8      N8      3.5314   -2.2863    0.1370 N.am     1 ZINC000052999724   -0.6000
9      C9      4.2934   -2.4852   -1.1033 C.3      1 ZINC000052999724    0.1100
10     C10     5.7156   -1.9540   -0.8989 C.3      1 ZINC000052999724   -0.1400
11     C11     6.3331   -2.6215    0.3321 C.3      1 ZINC000052999724    0.1500
12     N12     7.7052   -2.1404    0.5114 N.am     1 ZINC000052999724   -1.1100
13     S13     8.8717   -3.1624    1.0921 S.o2     1 ZINC000052999724    2.7200
14     O14    10.0815   -2.4175    1.1171 O.2      1 ZINC000052999724   -0.9500
15     O15     8.3203   -3.7882    2.2427 O.2      1 ZINC000052999724   -0.9400
16     C16     9.0950   -4.4340   -0.1070 C.2      1 ZINC000052999724   -0.8000
17     C17     9.9642   -4.3935   -1.1180 C.2      1 ZINC000052999724    0.0100
18     C18     9.9622   -5.5116   -1.9340 C.2      1 ZINC000052999724   -0.1600
19     C19     9.0914   -6.4601   -1.5857 C.2      1 ZINC000052999724   -0.1700
20     S20     8.2113   -5.9541   -0.1494 S.3      1 ZINC000052999724    0.2100
21     C21     5.5052   -2.2750    1.5717 C.3      1 ZINC000052999724   -0.1500
22     C22     4.0835   -2.8045    1.3961 C.3      1 ZINC000052999724    0.1100
23     S23     2.1282    0.2637   -2.0174 S.3      1 ZINC000052999724    0.2100
24     C24     1.0373   -0.1352   -3.2671 C.2      1 ZINC000052999724   -0.2400
25     C25     0.4512   -1.3150   -3.0322 C.2      1 ZINC000052999724   -0.1300
26     H26    -1.3651   -2.3892   -0.3412 H        1 ZINC000052999724    0.0600
27     H27    -1.7289   -2.8106   -2.0318 H        1 ZINC000052999724    0.0600
28     H28    -1.6069   -4.0914   -0.8018 H        1 ZINC000052999724    0.0600
29     H29     0.8022   -3.5820   -0.5103 H        1 ZINC000052999724    0.0800
30     H30    -0.0170   -3.9836   -3.4231 H        1 ZINC000052999724    0.0600
31     H31     1.5665   -4.3979   -2.7236 H        1 ZINC000052999724    0.0600
32     H32     0.1050   -5.2644   -2.1931 H        1 ZINC000052999724    0.0600
33     H33     4.3311   -3.5479   -1.3425 H        1 ZINC000052999724    0.0800
34     H34     3.8140   -1.9420   -1.9178 H        1 ZINC000052999724    0.0900
35     H35     6.3190   -2.1820   -1.7775 H        1 ZINC000052999724    0.0900
36     H36     5.6829   -0.8748   -0.7495 H        1 ZINC000052999724    0.0800
37     H37     6.3426   -3.7025    0.1926 H        1 ZINC000052999724    0.0900
38     H38     7.9304   -1.2233    0.2900 H        1 ZINC000052999724    0.4200
39     H39    10.6196   -3.5520   -1.2872 H        1 ZINC000052999724    0.1600
40     H40    10.6159   -5.6085   -2.7882 H        1 ZINC000052999724    0.1500
41     H41     8.9509   -7.3971   -2.1042 H        1 ZINC000052999724    0.1800
42     H42     5.9588   -2.7315    2.4514 H        1 ZINC000052999724    0.1000
43     H43     5.4745   -1.1927    1.6978 H        1 ZINC000052999724    0.0800
44     H44     3.4651   -2.4747    2.2310 H        1 ZINC000052999724    0.1000
45     H45     4.1012   -3.8937    1.3597 H        1 ZINC000052999724    0.0800
46     H46     0.8481    0.4805   -4.1340 H        1 ZINC000052999724    0.1700
47     H47    -0.2738   -1.7463   -3.7066 H        1 ZINC000052999724    0.1400
@<TRIPOS>BOND
1     1     2     1
2     1     26    1
3     1     27    1
4     1     28    1
5     2     3     1
6     2     4     1
7     2     29    1
8     3     30    1
9     3     31    1
10    3     32    1
11    4     25    1
12    4     5     2
13    5     6     1
14    5     23    1
15    6     7     2
16    6     8     am
17    8     22    1
18    8     9     1
19    9     10    1
20    9     33    1
21    9     34    1
22    10    11    1
23    10    35    1
24    10    36    1
25    11    12    1
26    11    21    1
27    11    37    1
28    12    13    am
29    12    38    1
30    13    14    2
31    13    15    2
32    13    16    1
33    16    20    1
34    16    17    2
35    17    18    1
36    17    39    1
37    18    19    2
38    18    40    1
39    19    20    1
40    19    41    1
41    21    22    1
42    21    42    1
43    21    43    1
44    22    44    1
45    22    45    1
46    23    24    1
47    24    25    2
48    24    46    1
49    25    47    1
@<TRIPOS>SUBSTRUCTURE
1   ZINC000052999724 1     RESIDUE    1   A     ZIN   1
@<TRIPOS>MOLECULE
ZINC000455156110
50	53	1	0	0
SMALL
USER_CHARGES
@<TRIPOS>ATOM
1      C1      2.2019   -2.8533    0.6965 C.3      1 ZINC000455156110    0.0300
2      O2      1.1003   -2.1026    0.1817 O.3      1 ZINC000455156110   -0.3100
3      C3     -0.1069   -2.7281    0.1384 C.ar     1 ZINC000455156110    0.0900
4      C4     -0.2272   -4.0337    0.5877 C.ar     1 ZINC000455156110   -0.1600
5      C5     -1.4531   -4.6699    0.5443 C.ar     1 ZINC000455156110   -0.0800
6      C6     -1.5825   -6.0897    1.0326 C.3      1 ZINC000455156110   -0.1100
7      C7     -2.5653   -4.0017    0.0514 C.ar     1 ZINC000455156110    0.1500
8      N8     -3.8085   -4.6470    0.0084 N.am     1 ZINC000455156110   -0.6700
9      C9     -4.9438   -3.9314    0.1328 C.2      1 ZINC000455156110    0.7200
10     O10    -4.8982   -2.7164    0.1470 O.2      1 ZINC000455156110   -0.5500
11     N11    -6.1297   -4.5626    0.2414 N.am     1 ZINC000455156110   -0.5600
12     C12    -6.3021   -6.0140    0.3613 C.3      1 ZINC000455156110    0.1000
13     C13    -7.8177   -6.2277    0.4556 C.3      1 ZINC000455156110   -0.0200
14     C14    -8.3051   -7.0848   -0.7103 C.3      1 ZINC000455156110   -0.1400
15     C15    -7.7180   -8.4936   -0.5788 C.3      1 ZINC000455156110    0.0600
16     O16    -8.0854   -9.0439    0.6879 O.3      1 ZINC000455156110   -0.3800
17     C17    -7.5950   -8.3082    1.8107 C.3      1 ZINC000455156110    0.0600
18     C18    -8.1770   -6.8915    1.7830 C.3      1 ZINC000455156110   -0.1400
19     C19    -8.4129   -4.8442    0.3793 C.ar     1 ZINC000455156110   -0.1300
20     C20    -9.7252   -4.4135    0.4124 C.ar     1 ZINC000455156110   -0.0700
21     C21   -10.0170   -3.0649    0.3242 C.ar     1 ZINC000455156110   -0.1400
22     C22    -8.9915   -2.1456    0.2025 C.ar     1 ZINC000455156110   -0.0900
23     C23    -7.6802   -2.5702    0.1681 C.ar     1 ZINC000455156110   -0.1300
24     C24    -7.3768   -3.9291    0.2624 C.ar     1 ZINC000455156110    0.1600
25     C25    -2.4460   -2.6934   -0.3985 C.ar     1 ZINC000455156110   -0.1200
26     C26    -1.2203   -2.0560   -0.3507 C.ar     1 ZINC000455156110    0.0900
27     F27    -1.1031   -0.7830   -0.7878 F        1 ZINC000455156110   -0.1300
28     H28     3.1019   -2.2388    0.6754 H        1 ZINC000455156110    0.1000
29     H29     1.9898   -3.1520    1.7231 H        1 ZINC000455156110    0.0600
30     H30     2.3541   -3.7418    0.0837 H        1 ZINC000455156110    0.0600
31     H31     0.6377   -4.5542    0.9717 H        1 ZINC000455156110    0.1400
32     H32    -1.8259   -6.0878    2.0951 H        1 ZINC000455156110    0.0800
33     H33    -2.3751   -6.5935    0.4792 H        1 ZINC000455156110    0.0600
34     H34    -0.6402   -6.6149    0.8767 H        1 ZINC000455156110    0.0800
35     H35    -3.8519   -5.6086   -0.1109 H        1 ZINC000455156110    0.4100
36     H36    -5.9028   -6.5169   -0.5195 H        1 ZINC000455156110    0.0800
37     H37    -5.8112   -6.3805    1.2628 H        1 ZINC000455156110    0.0900
38     H38    -9.3935   -7.1406   -0.6913 H        1 ZINC000455156110    0.0800
39     H39    -7.9787   -6.6404   -1.6505 H        1 ZINC000455156110    0.0800
40     H40    -8.1075   -9.1258   -1.3767 H        1 ZINC000455156110    0.1000
41     H41    -6.6316   -8.4430   -0.6520 H        1 ZINC000455156110    0.0500
42     H42    -7.8959   -8.8071    2.7319 H        1 ZINC000455156110    0.1000
43     H43    -6.5072   -8.2554    1.7639 H        1 ZINC000455156110    0.0500
44     H44    -7.7601   -6.3103    2.6055 H        1 ZINC000455156110    0.0800
45     H45    -9.2612   -6.9411    1.8837 H        1 ZINC000455156110    0.0800
46     H46   -10.5255   -5.1324    0.5070 H        1 ZINC000455156110    0.1300
47     H47   -11.0435   -2.7305    0.3500 H        1 ZINC000455156110    0.1300
48     H48    -9.2183   -1.0919    0.1338 H        1 ZINC000455156110    0.1300
49     H49    -6.8836   -1.8472    0.0723 H        1 ZINC000455156110    0.1400
50     H50    -3.3110   -2.1729   -0.7821 H        1 ZINC000455156110    0.1700
@<TRIPOS>BOND
1     1     2     1
2     1     28    1
3     1     29    1
4     1     30    1
5     2     3     1
6     3     26    ar
7     3     4     ar
8     4     5     ar
9     4     31    1
10    5     6     1
11    5     7     ar
12    6     32    1
13    6     33    1
14    6     34    1
15    7     8     1
16    7     25    ar
17    8     9     am
18    8     35    1
19    9     10    2
20    9     11    am
21    11    24    1
22    11    12    1
23    12    13    1
24    12    36    1
25    12    37    1
26    13    18    1
27    13    14    1
28    13    19    1
29    14    15    1
30    14    38    1
31    14    39    1
32    15    16    1
33    15    40    1
34    15    41    1
35    16    17    1
36    17    18    1
37    17    42    1
38    17    43    1
39    18    44    1
40    18    45    1
41    19    24    ar
42    19    20    ar
43    20    21    ar
44    20    46    1
45    21    22    ar
46    21    47    1
47    22    23    ar
48    22    48    1
49    23    24    ar
50    23    49    1
51    25    26    ar
52    25    50    1
53    26    27    1
@<TRIPOS>SUBSTRUCTURE
1   ZINC000455156110 1     RESIDUE    1   A     ZIN   1
@<TRIPOS>MOLECULE
ZINC000176150038
32	34	1	0	0
SMALL
USER_CHARGES
@<TRIPOS>ATOM
1      C1      0.0067    1.4656   -0.0040 C.3      1 ZINC000176150038   -0.0900
2      C2      0.0175   -0.0414   -0.0046 C.2      1 ZINC000176150038    0.2600
3      N3      0.0197   -0.8161   -1.0578 N.2      1 ZINC000176150038   -0.3300
4      N4      0.0303   -2.0524   -0.7104 N.2      1 ZINC000176150038   -0.0300
5      N5      0.0356   -2.1537    0.5751 N.2      1 ZINC000176150038   -0.0700
6      N6      0.0325   -0.8425    1.0826 N.pl3    1 ZINC000176150038   -0.3300
7      C7      0.0361   -0.4503    2.4298 C.ar     1 ZINC000176150038    0.1400
8      C8      0.7183    0.6947    2.8177 C.ar     1 ZINC000176150038   -0.1000
9      C9      0.7227    1.0829    4.1442 C.ar     1 ZINC000176150038   -0.1100
10     C10     0.0476    0.3321    5.0891 C.ar     1 ZINC000176150038    0.1000
11     F11     0.0531    0.7141    6.3850 F        1 ZINC000176150038   -0.1200
12     C12    -0.6378   -0.8165    4.7054 C.ar     1 ZINC000176150038    0.1300
13     N13    -1.3212   -1.5768    5.6610 N.am     1 ZINC000176150038   -0.6500
14     C14    -2.4750   -2.1914    5.3335 C.2      1 ZINC000176150038    0.5700
15     O15    -2.8802   -2.1531    4.1886 O.2      1 ZINC000176150038   -0.4800
16     C16    -3.2503   -2.9148    6.3707 C.ar     1 ZINC000176150038    0.1400
17     N17    -2.8197   -2.9593    7.6296 N.ar     1 ZINC000176150038   -0.4800
18     C18    -3.5046   -3.5994    8.5524 C.ar     1 ZINC000176150038    0.3000
19     N19    -4.6359   -4.2195    8.2780 N.ar     1 ZINC000176150038   -0.4800
20     C20    -5.1320   -4.2229    7.0529 C.ar     1 ZINC000176150038    0.1700
21     C21    -4.4477   -3.5560    6.0444 C.ar     1 ZINC000176150038   -0.1000
22     Cl22   -5.0581   -3.5307    4.4194 Cl       1 ZINC000176150038    0.0100
23     C23    -0.6470   -1.2038    3.3736 C.ar     1 ZINC000176150038   -0.0800
24     H24     1.0318    1.8362   -0.0127 H        1 ZINC000176150038    0.1100
25     H25    -0.5173    1.8255   -0.8894 H        1 ZINC000176150038    0.1100
26     H26    -0.5020    1.8249    0.8905 H        1 ZINC000176150038    0.0900
27     H27     1.2468    1.2828    2.0820 H        1 ZINC000176150038    0.1500
28     H28     1.2546    1.9740    4.4434 H        1 ZINC000176150038    0.1600
29     H29    -0.9644   -1.6614    6.5590 H        1 ZINC000176150038    0.4300
30     H30    -3.1292   -3.6180    9.5649 H        1 ZINC000176150038    0.2200
31     H31    -6.0592   -4.7340    6.8395 H        1 ZINC000176150038    0.1900
32     H32    -1.1782   -2.0948    3.0730 H        1 ZINC000176150038    0.1700
@<TRIPOS>BOND
1     1     2     1
2     1     24    1
3     1     25    1
4     1     26    1
5     2     6     1
6     2     3     2
7     3     4     1
8     4     5     2
9     5     6     1
10    6     7     1
11    7     23    ar
12    7     8     ar
13    8     9     ar
14    8     27    1
15    9     10    ar
16    9     28    1
17    10    11    1
18    10    12    ar
19    12    13    1
20    12    23    ar
21    13    14    am
22    13    29    1
23    14    15    2
24    14    16    1
25    16    21    ar
26    16    17    ar
27    17    18    ar
28    18    19    ar
29    18    30    1
30    19    20    ar
31    20    21    ar
32    20    31    1
33    21    22    1
34    23    32    1
@<TRIPOS>SUBSTRUCTURE
1   ZINC000176150038 1     RESIDUE    1   A     ZIN   1
@<TRIPOS>MOLECULE
ZINC000004598904
54	55	1	0	0
SMALL
USER_CHARGES
@<TRIPOS>ATOM
1      C1     -1.8513   -2.2569   -0.6466 C.3      1 ZINC000004598904   -0.1500
2      C2     -0.5057   -1.5844   -0.3671 C.3      1 ZINC000004598904    0.0600
3      O3      0.1203   -2.2135    0.7820 O.3      1 ZINC000004598904   -0.3500
4      C4      1.3210   -1.7349    1.1629 C.2      1 ZINC000004598904    0.5100
5      O5      1.8309   -0.8170    0.5514 O.2      1 ZINC000004598904   -0.5100
6      C6      2.0162   -2.3252    2.3217 C.ar     1 ZINC000004598904   -0.1500
7      C7      1.4336   -3.3852    3.0229 C.ar     1 ZINC000004598904   -0.0400
8      C8      2.0854   -3.9336    4.1041 C.ar     1 ZINC000004598904   -0.1400
9      C9      3.3226   -3.4344    4.4995 C.ar     1 ZINC000004598904    0.1800
10     N10     3.9800   -3.9927    5.5948 N.am     1 ZINC000004598904   -0.6700
11     C11     3.8552   -5.3089    5.8565 C.2      1 ZINC000004598904    0.5200
12     O12     3.2483   -6.0250    5.0886 O.2      1 ZINC000004598904   -0.5100
13     C13     4.4700   -5.8908    7.1033 C.3      1 ZINC000004598904   -0.1300
14     C14     4.1842   -7.3928    7.1596 C.3      1 ZINC000004598904   -0.1300
15     C15     4.7989   -7.9748    8.4064 C.2      1 ZINC000004598904    0.5200
16     O16     5.4058   -7.2587    9.1743 O.2      1 ZINC000004598904   -0.5100
17     N17     4.6742   -9.2910    8.6681 N.am     1 ZINC000004598904   -0.6700
18     C18     5.1491   -9.8105    9.8715 C.ar     1 ZINC000004598904    0.1800
19     C19     5.1002   -9.0385   11.0282 C.ar     1 ZINC000004598904   -0.1400
20     C20     5.5681   -9.5482   12.2181 C.ar     1 ZINC000004598904   -0.0300
21     C21     6.0926  -10.8433   12.2637 C.ar     1 ZINC000004598904   -0.1500
22     C22     6.5945  -11.3930   13.5367 C.2      1 ZINC000004598904    0.5100
23     O23     6.5525  -10.7202   14.5475 O.2      1 ZINC000004598904   -0.5100
24     O24     7.0997  -12.6415   13.5789 O.3      1 ZINC000004598904   -0.3600
25     C25     7.5752  -13.1171   14.8657 C.3      1 ZINC000004598904    0.0600
26     C26     8.1085  -14.5434   14.7170 C.3      1 ZINC000004598904   -0.1500
27     C27     6.1398  -11.6163   11.0997 C.ar     1 ZINC000004598904   -0.0400
28     C28     5.6656  -11.1019    9.9143 C.ar     1 ZINC000004598904   -0.1600
29     C29     3.9054   -2.3795    3.8040 C.ar     1 ZINC000004598904   -0.1600
30     C30     3.2620   -1.8299    2.7183 C.ar     1 ZINC000004598904   -0.0300
31     H31    -2.4987   -2.1499    0.2238 H        1 ZINC000004598904    0.0700
32     H32    -2.3213   -1.7846   -1.5093 H        1 ZINC000004598904    0.0800
33     H33    -1.6925   -3.3152   -0.8534 H        1 ZINC000004598904    0.0700
34     H34     0.1417   -1.6914   -1.2375 H        1 ZINC000004598904    0.0700
35     H35    -0.6645   -0.5260   -0.1603 H        1 ZINC000004598904    0.0700
36     H36     0.4732   -3.7729    2.7168 H        1 ZINC000004598904    0.1400
37     H37     1.6358   -4.7522    4.6465 H        1 ZINC000004598904    0.1400
38     H38     4.5271   -3.4338    6.1686 H        1 ZINC000004598904    0.4200
39     H39     5.5474   -5.7263    7.0880 H        1 ZINC000004598904    0.1100
40     H40     4.0408   -5.4062    7.9803 H        1 ZINC000004598904    0.1100
41     H41     3.1068   -7.5573    7.1749 H        1 ZINC000004598904    0.1100
42     H42     4.6133   -7.8775    6.2827 H        1 ZINC000004598904    0.1100
43     H43     4.2540   -9.8768    8.0191 H        1 ZINC000004598904    0.4200
44     H44     4.6948   -8.0381   10.9922 H        1 ZINC000004598904    0.1400
45     H45     5.5305   -8.9482   13.1153 H        1 ZINC000004598904    0.1400
46     H46     8.3737  -12.4659   15.2213 H        1 ZINC000004598904    0.0700
47     H47     6.7538  -13.1092   15.5821 H        1 ZINC000004598904    0.0700
48     H48     8.4655  -14.9004   15.6830 H        1 ZINC000004598904    0.0800
49     H49     7.3100  -15.1946   14.3614 H        1 ZINC000004598904    0.0700
50     H50     8.9300  -14.5513   14.0006 H        1 ZINC000004598904    0.0700
51     H51     6.5446  -12.6170   11.1312 H        1 ZINC000004598904    0.1400
52     H52     5.7013  -11.6985    9.0147 H        1 ZINC000004598904    0.1400
53     H53     4.8657   -1.9945    4.1136 H        1 ZINC000004598904    0.1400
54     H54     3.7149   -1.0112    2.1789 H        1 ZINC000004598904    0.1400
@<TRIPOS>BOND
1     1     2     1
2     1     31    1
3     1     32    1
4     1     33    1
5     2     3     1
6     2     34    1
7     2     35    1
8     3     4     1
9     4     5     2
10    4     6     1
11    6     30    ar
12    6     7     ar
13    7     8     ar
14    7     36    1
15    8     9     ar
16    8     37    1
17    9     10    1
18    9     29    ar
19    10    11    am
20    10    38    1
21    11    12    2
22    11    13    1
23    13    14    1
24    13    39    1
25    13    40    1
26    14    15    1
27    14    41    1
28    14    42    1
29    15    16    2
30    15    17    am
31    17    18    1
32    17    43    1
33    18    28    ar
34    18    19    ar
35    19    20    ar
36    19    44    1
37    20    21    ar
38    20    45    1
39    21    22    1
40    21    27    ar
41    22    23    2
42    22    24    1
43    24    25    1
44    25    26    1
45    25    46    1
46    25    47    1
47    26    48    1
48    26    49    1
49    26    50    1
50    27    28    ar
51    27    51    1
52    28    52    1
53    29    30    ar
54    29    53    1
55    30    54    1
@<TRIPOS>SUBSTRUCTURE
1   ZINC000004598904 1     RESIDUE    1   A     ZIN   1
@<TRIPOS>MOLECULE
ZINC000550011575
51	53	1	0	0
SMALL
USER_CHARGES
@<TRIPOS>ATOM
1      C1     -0.0284    1.2688    0.3041 C.3      1 ZINC000550011575   -0.1400
2      C2      0.0800   -0.2442    0.1043 C.3      1 ZINC000550011575   -0.6100
3      H3      0.7589   -0.6612    0.8482 H        1 ZINC000550011575    0.1500
4      C4     -1.2819   -0.8704    0.2601 C.2      1 ZINC000550011575    0.5400
5      O5     -1.9296   -1.1654   -0.7219 O.2      1 ZINC000550011575   -0.5100
6      N6     -1.7801   -1.1024    1.4907 N.am     1 ZINC000550011575   -0.6000
7      C7     -0.9977   -0.7460    2.6769 C.3      1 ZINC000550011575    0.0600
8      C8     -3.1040   -1.7111    1.6421 C.3      1 ZINC000550011575    0.1500
9      C9     -2.9649   -3.2109    1.6907 C.ar     1 ZINC000550011575   -0.1500
10     C10    -3.0089   -3.9487    0.5204 C.ar     1 ZINC000550011575    0.1400
11     F11    -3.1767   -3.3247   -0.6661 F        1 ZINC000550011575   -0.1100
12     C12    -2.8804   -5.3268    0.5664 C.ar     1 ZINC000550011575   -0.1500
13     C13    -2.7083   -5.9646    1.7801 C.ar     1 ZINC000550011575   -0.0700
14     C14    -2.6643   -5.2277    2.9490 C.ar     1 ZINC000550011575   -0.1300
15     C15    -2.7873   -3.8505    2.9044 C.ar     1 ZINC000550011575    0.0000
16     Cl16   -2.7312   -2.9260    4.3727 Cl       1 ZINC000550011575   -0.0500
17     S17     0.7182   -0.5905   -1.5581 S.o2     1 ZINC000550011575    2.4500
18     O18     0.7492   -1.9986   -1.7469 O.2      1 ZINC000550011575   -0.9200
19     O19     0.0153    0.2192   -2.4906 O.2      1 ZINC000550011575   -0.9100
20     C20     2.4241    0.0143   -1.4381 C.3      1 ZINC000550011575   -0.5300
21     H21     2.9451   -0.1917   -2.3731 H        1 ZINC000550011575    0.1500
22     C22     3.1354   -0.7080   -0.2957 C.3      1 ZINC000550011575   -0.1100
23     C23     4.4946   -0.0357   -0.0695 C.3      1 ZINC000550011575   -0.1100
24     C24     4.2538    1.3498    0.5266 C.3      1 ZINC000550011575   -0.0900
25     C25     3.2543    2.1154   -0.3004 C.ar     1 ZINC000550011575   -0.0600
26     C26     3.2002    3.4933   -0.1370 C.ar     1 ZINC000550011575   -0.1200
27     C27     2.3024    4.2505   -0.8612 C.ar     1 ZINC000550011575   -0.1100
28     C28     1.4489    3.6332   -1.7562 C.ar     1 ZINC000550011575   -0.1100
29     C29     1.5028    2.2644   -1.9217 C.ar     1 ZINC000550011575   -0.1500
30     C30     2.4082    1.5009   -1.1956 C.ar     1 ZINC000550011575   -0.0800
31     H31     0.9710    1.7011    0.3548 H        1 ZINC000550011575    0.0900
32     H32    -0.5720    1.7077   -0.5325 H        1 ZINC000550011575    0.0900
33     H33    -0.5612    1.4755    1.2322 H        1 ZINC000550011575    0.0800
34     H34    -1.2327    0.2762    2.9735 H        1 ZINC000550011575    0.0700
35     H35    -1.2435   -1.4265    3.4921 H        1 ZINC000550011575    0.0800
36     H36     0.0651   -0.8226    2.4476 H        1 ZINC000550011575    0.0700
37     H37    -3.5624   -1.3586    2.5661 H        1 ZINC000550011575    0.1000
38     H38    -3.7314   -1.4316    0.7957 H        1 ZINC000550011575    0.1100
39     H39    -2.9150   -5.9031   -0.3463 H        1 ZINC000550011575    0.1500
40     H40    -2.6085   -7.0394    1.8156 H        1 ZINC000550011575    0.1500
41     H41    -2.5301   -5.7272    3.8971 H        1 ZINC000550011575    0.1400
42     H42     2.5360   -0.6385    0.6121 H        1 ZINC000550011575    0.0800
43     H43     3.2832   -1.7553   -0.5592 H        1 ZINC000550011575    0.0900
44     H44     5.0897   -0.6338    0.6206 H        1 ZINC000550011575    0.0800
45     H45     5.0196    0.0598   -1.0200 H        1 ZINC000550011575    0.0700
46     H46     3.8732    1.2429    1.5423 H        1 ZINC000550011575    0.0800
47     H47     5.1951    1.8987    0.5519 H        1 ZINC000550011575    0.0800
48     H48     3.8661    3.9762    0.5628 H        1 ZINC000550011575    0.1300
49     H49     2.2664    5.3218   -0.7289 H        1 ZINC000550011575    0.1300
50     H50     0.7420    4.2202   -2.3238 H        1 ZINC000550011575    0.1300
51     H51     0.8352    1.7828   -2.6207 H        1 ZINC000550011575    0.1700
@<TRIPOS>BOND
1     1     2     1
2     1     31    1
3     1     32    1
4     1     33    1
5     2     3     1
6     2     4     1
7     2     17    1
8     4     5     2
9     4     6     am
10    6     7     1
11    6     8     1
12    7     34    1
13    7     35    1
14    7     36    1
15    8     9     1
16    8     37    1
17    8     38    1
18    9     15    ar
19    9     10    ar
20    10    11    1
21    10    12    ar
22    12    13    ar
23    12    39    1
24    13    14    ar
25    13    40    1
26    14    15    ar
27    14    41    1
28    15    16    1
29    17    18    2
30    17    19    2
31    17    20    1
32    20    21    1
33    20    30    1
34    20    22    1
35    22    23    1
36    22    42    1
37    22    43    1
38    23    24    1
39    23    44    1
40    23    45    1
41    24    25    1
42    24    46    1
43    24    47    1
44    25    30    ar
45    25    26    ar
46    26    27    ar
47    26    48    1
48    27    28    ar
49    27    49    1
50    28    29    ar
51    28    50    1
52    29    30    ar
53    29    51    1
@<TRIPOS>SUBSTRUCTURE
1   ZINC000550011575 1     RESIDUE    1   A     ZIN   1
@<TRIPOS>MOLECULE
ZINC000821177065
48	51	1	0	0
SMALL
USER_CHARGES
@<TRIPOS>ATOM
1      O1     -0.4140    0.9419    0.2550 O.2      1 ZINC000821177065   -0.5600
2      C2     -0.1395    2.1202    0.1338 C.2      1 ZINC000821177065    0.7100
3      N3      1.1478    2.5046    0.0260 N.am     1 ZINC000821177065   -0.7300
4      C4      2.2163    1.5027    0.0547 C.3      1 ZINC000821177065    0.1200
5      C5      3.5674    2.1921   -0.1460 C.3      1 ZINC000821177065    0.1900
6      O6      4.5929    1.2043   -0.2668 O.3      1 ZINC000821177065   -0.5400
7      C7      3.5233    3.0399   -1.4188 C.3      1 ZINC000821177065   -0.1500
8      C8      4.7073    2.9307   -2.3817 C.3      1 ZINC000821177065   -0.1600
9      C9      3.3605    2.3057   -2.7513 C.3      1 ZINC000821177065   -0.1700
10     C10     3.8645    3.0914    1.0557 C.3      1 ZINC000821177065   -0.1800
11     C11     2.7621    3.2576    2.1034 C.3      1 ZINC000821177065   -0.1900
12     C12     4.0017    2.4200    2.4237 C.3      1 ZINC000821177065   -0.1700
13     N13    -1.1227    3.0414    0.1018 N.am     1 ZINC000821177065   -0.6500
14     C14    -2.4621    2.6410    0.2082 C.2      1 ZINC000821177065    0.3200
15     N15    -3.5076    3.4335    0.1853 N.2      1 ZINC000821177065   -0.3200
16     N16    -4.6570    2.6443    0.3194 N.pl3    1 ZINC000821177065   -0.3600
17     C17    -6.0381    3.1323    0.3423 C.3      1 ZINC000821177065    0.1900
18     C18    -6.1847    4.1749    1.4205 C.ar     1 ZINC000821177065    0.1100
19     C19    -6.6843    5.4228    1.1004 C.ar     1 ZINC000821177065   -0.1500
20     C20    -6.8156    6.3749    2.1000 C.ar     1 ZINC000821177065   -0.0700
21     C21    -6.4377    6.0342    3.3895 C.ar     1 ZINC000821177065   -0.1700
22     C22    -5.9461    4.7657    3.6343 C.ar     1 ZINC000821177065    0.1000
23     N23    -5.8397    3.8839    2.6598 N.ar     1 ZINC000821177065   -0.4700
24     C24    -4.2696    1.3556    0.4232 C.2      1 ZINC000821177065    0.0700
25     C25    -2.9195    1.3214    0.3518 C.2      1 ZINC000821177065   -0.2600
26     H26     1.3668    3.4446   -0.0707 H        1 ZINC000821177065    0.4000
27     H27     2.2089    0.9911    1.0172 H        1 ZINC000821177065    0.0700
28     H28     2.0562    0.7778   -0.7434 H        1 ZINC000821177065    0.0800
29     H29     4.6780    0.6291    0.5058 H        1 ZINC000821177065    0.3800
30     H30     3.0436    4.0136   -1.3188 H        1 ZINC000821177065    0.1100
31     H31     5.0069    3.8327   -2.9153 H        1 ZINC000821177065    0.0900
32     H32     5.5176    2.2549   -2.1084 H        1 ZINC000821177065    0.1100
33     H33     3.2848    1.2188   -2.7211 H        1 ZINC000821177065    0.1000
34     H34     2.7741    2.7966   -3.5280 H        1 ZINC000821177065    0.0900
35     H35     4.4999    3.9533    0.8521 H        1 ZINC000821177065    0.1100
36     H36     2.6718    4.2291    2.5893 H        1 ZINC000821177065    0.1000
37     H37     1.8250    2.7263    1.9367 H        1 ZINC000821177065    0.1100
38     H38     3.8803    1.3377    2.4676 H        1 ZINC000821177065    0.0900
39     H39     4.7271    2.8405    3.1202 H        1 ZINC000821177065    0.1000
40     H40    -0.9037    3.9814    0.0051 H        1 ZINC000821177065    0.4100
41     H41    -6.2842    3.5721   -0.6242 H        1 ZINC000821177065    0.1000
42     H42    -6.7137    2.3015    0.5460 H        1 ZINC000821177065    0.1200
43     H43    -6.9686    5.6539    0.0844 H        1 ZINC000821177065    0.1400
44     H44    -7.2028    7.3587    1.8791 H        1 ZINC000821177065    0.1400
45     H45    -6.5260    6.7508    4.1927 H        1 ZINC000821177065    0.1400
46     H46    -5.6491    4.4925    4.6361 H        1 ZINC000821177065    0.1600
47     H47    -4.9221    0.5028    0.5381 H        1 ZINC000821177065    0.1800
48     H48    -2.3023    0.4366    0.4036 H        1 ZINC000821177065    0.1700
@<TRIPOS>BOND
1     1     2     2
2     2     3     am
3     2     13    am
4     3     4     1
5     3     26    1
6     4     5     1
7     4     27    1
8     4     28    1
9     5     6     1
10    5     7     1
11    5     10    1
12    6     29    1
13    7     9     1
14    7     8     1
15    7     30    1
16    8     9     1
17    8     31    1
18    8     32    1
19    9     33    1
20    9     34    1
21    10    12    1
22    10    11    1
23    10    35    1
24    11    12    1
25    11    36    1
26    11    37    1
27    12    38    1
28    12    39    1
29    13    14    1
30    13    40    1
31    14    25    1
32    14    15    2
33    15    16    1
34    16    17    1
35    16    24    1
36    17    18    1
37    17    41    1
38    17    42    1
39    18    23    ar
40    18    19    ar
41    19    20    ar
42    19    43    1
43    20    21    ar
44    20    44    1
45    21    22    ar
46    21    45    1
47    22    23    ar
48    22    46    1
49    24    25    2
50    24    47    1
51    25    48    1
@<TRIPOS>SUBSTRUCTURE
1   ZINC000821177065 1     RESIDUE    1   A     ZIN   1
@<TRIPOS>MOLECULE
ZINC000915315870
41	43	1	0	0
SMALL
USER_CHARGES
@<TRIPOS>ATOM
1      C1     -0.4710   -3.5601   -3.2214 C.3      1 ZINC000915315870    0.0300
2      O2     -1.3734   -4.6291   -2.9298 O.3      1 ZINC000915315870   -0.3200
3      C3     -2.5323   -4.3034   -2.2967 C.ar     1 ZINC000915315870    0.0800
4      C4     -2.5881   -4.2932   -0.9095 C.ar     1 ZINC000915315870    0.0900
5      F5     -1.4907   -4.6063   -0.1863 F        1 ZINC000915315870   -0.1100
6      C6     -3.7686   -3.9614   -0.2684 C.ar     1 ZINC000915315870   -0.0500
7      C7     -4.8920   -3.6409   -1.0077 C.ar     1 ZINC000915315870   -0.6300
8      S8     -6.3935   -3.2196   -0.1876 S.o2     1 ZINC000915315870    2.7000
9      O9     -7.4422   -3.4852   -1.1090 O.2      1 ZINC000915315870   -0.9400
10     O10    -6.3249   -3.8099    1.1032 O.2      1 ZINC000915315870   -0.9400
11     N11    -6.3808   -1.5803    0.0466 N.am     1 ZINC000915315870   -1.1100
12     C12    -6.4178   -0.6755   -1.1050 C.3      1 ZINC000915315870    0.2400
13     H13    -6.0399   -1.1895   -1.9887 H        1 ZINC000915315870    0.0900
14     C14    -7.8588   -0.2117   -1.3527 C.3      1 ZINC000915315870   -0.1400
15     C15    -7.8680    0.9128   -2.3905 C.3      1 ZINC000915315870   -0.1100
16     C16    -7.2947    2.1938   -1.7718 C.3      1 ZINC000915315870   -0.0400
17     C17    -5.9741    1.8546   -1.1242 C.2      1 ZINC000915315870    0.0900
18     N18    -5.0270    2.6654   -0.7515 N.2      1 ZINC000915315870   -0.2900
19     N19    -3.9878    1.8995   -0.2017 N.pl3    1 ZINC000915315870   -0.3800
20     C20    -2.7297    2.4182    0.3408 C.3      1 ZINC000915315870    0.1000
21     C21    -4.3519    0.5987   -0.2600 C.2      1 ZINC000915315870    0.0800
22     C22    -5.5720    0.5418   -0.8233 C.2      1 ZINC000915315870   -0.2500
23     C23    -4.8396   -3.6497   -2.3892 C.ar     1 ZINC000915315870   -0.0500
24     C24    -3.6605   -3.9750   -3.0363 C.ar     1 ZINC000915315870    0.1000
25     F25    -3.6100   -3.9834   -4.3863 F        1 ZINC000915315870   -0.1100
26     H26     0.4105   -3.9562   -3.7256 H        1 ZINC000915315870    0.1100
27     H27    -0.9642   -2.8346   -3.8683 H        1 ZINC000915315870    0.0600
28     H28    -0.1710   -3.0743   -2.2930 H        1 ZINC000915315870    0.0500
29     H29    -3.8126   -3.9533    0.8107 H        1 ZINC000915315870    0.1700
30     H30    -6.3489   -1.2191    0.9463 H        1 ZINC000915315870    0.4200
31     H31    -8.4512   -1.0495   -1.7205 H        1 ZINC000915315870    0.0900
32     H32    -8.2879    0.1527   -0.4193 H        1 ZINC000915315870    0.0800
33     H33    -7.2605    0.6206   -3.2470 H        1 ZINC000915315870    0.0700
34     H34    -8.8914    1.0952   -2.7183 H        1 ZINC000915315870    0.0800
35     H35    -7.1414    2.9413   -2.5501 H        1 ZINC000915315870    0.0800
36     H36    -7.9841    2.5799   -1.0209 H        1 ZINC000915315870    0.0900
37     H37    -2.8508    2.6262    1.4038 H        1 ZINC000915315870    0.0800
38     H38    -1.9419    1.6776    0.2029 H        1 ZINC000915315870    0.0900
39     H39    -2.4604    3.3366   -0.1808 H        1 ZINC000915315870    0.0900
40     H40    -3.7685   -0.2428    0.0835 H        1 ZINC000915315870    0.1700
41     H41    -5.7187   -3.3985   -2.9640 H        1 ZINC000915315870    0.1700
@<TRIPOS>BOND
1     1     2     1
2     1     26    1
3     1     27    1
4     1     28    1
5     2     3     1
6     3     24    ar
7     3     4     ar
8     4     5     1
9     4     6     ar
10    6     7     ar
11    6     29    1
12    7     8     1
13    7     23    ar
14    8     9     2
15    8     10    2
16    8     11    am
17    11    12    1
18    11    30    1
19    12    13    1
20    12    22    1
21    12    14    1
22    14    15    1
23    14    31    1
24    14    32    1
25    15    16    1
26    15    33    1
27    15    34    1
28    16    17    1
29    16    35    1
30    16    36    1
31    17    22    1
32    17    18    2
33    18    19    1
34    19    20    1
35    19    21    1
36    20    37    1
37    20    38    1
38    20    39    1
39    21    22    2
40    21    40    1
41    23    24    ar
42    23    41    1
43    24    25    1
@<TRIPOS>SUBSTRUCTURE
1   ZINC000915315870 1     RESIDUE    1   A     ZIN   1
@<TRIPOS>MOLECULE
ZINC000672622940
62	65	1	0	0
SMALL
USER_CHARGES
@<TRIPOS>ATOM
1      C1     -0.9376    1.3759   -0.0359 C.3      1 ZINC000672622940    0.0800
2      N2     -0.6159   -0.0533   -0.0335 N.am     1 ZINC000672622940   -0.6200
3      C3     -0.2887   -0.7284    1.2249 C.3      1 ZINC000672622940    0.0700
4      C4     -0.6209   -0.7471   -1.1890 C.2      1 ZINC000672622940    0.5200
5      O5     -0.8917   -0.1882   -2.2307 O.2      1 ZINC000672622940   -0.5300
6      C6     -0.2899   -2.2173   -1.1865 C.3      1 ZINC000672622940   -0.1000
7      H7      0.7176   -2.3623   -0.7967 H        1 ZINC000672622940    0.1000
8      C8     -1.2910   -2.9640   -0.3027 C.3      1 ZINC000672622940   -0.1300
9      C9     -0.9550   -4.4566   -0.3002 C.3      1 ZINC000672622940   -0.1100
10     C10    -1.0321   -4.9991   -1.7287 C.3      1 ZINC000672622940   -0.1300
11     C11    -0.0309   -4.2524   -2.6125 C.3      1 ZINC000672622940    0.1400
12     H12     0.9766   -4.3974   -2.2227 H        1 ZINC000672622940    0.1000
13     N13    -0.1047   -4.7719   -3.9804 N.am     1 ZINC000672622940   -0.6900
14     C14     0.6035   -5.8656   -4.3250 C.2      1 ZINC000672622940    0.5100
15     O15     1.3022   -6.4201   -3.5022 O.2      1 ZINC000672622940   -0.5100
16     C16     0.5282   -6.3955   -5.7203 C.2      1 ZINC000672622940    0.5100
17     O17    -0.0701   -5.7742   -6.5739 O.2      1 ZINC000672622940   -0.5200
18     N18     1.1249   -7.5635   -6.0307 N.am     1 ZINC000672622940   -0.5800
19     C19     1.6848   -8.4212   -4.9774 C.3      1 ZINC000672622940    0.0700
20     C20     1.0958   -9.8280   -5.1221 C.3      1 ZINC000672622940   -0.1200
21     C21     1.3431  -10.3364   -6.5442 C.3      1 ZINC000672622940    0.0000
22     C22     0.7951  -11.7336   -6.6803 C.2      1 ZINC000672622940    0.2000
23     N23    -0.4475  -12.0969   -6.5159 N.2      1 ZINC000672622940   -0.2800
24     N24    -0.5576  -13.3630   -6.7108 N.2      1 ZINC000672622940   -0.2800
25     C25     0.6115  -13.8645   -7.0096 C.2      1 ZINC000672622940    0.1500
26     C26     1.3122  -15.1589   -7.3616 C.3      1 ZINC000672622940   -0.0400
27     C27     2.6609  -14.7092   -7.9684 C.3      1 ZINC000672622940   -0.1300
28     C28     2.8528  -13.3214   -7.3187 C.3      1 ZINC000672622940    0.1000
29     N29     1.5004  -12.8462   -7.0022 N.pl3    1 ZINC000672622940   -0.4900
30     C30     0.6440   -9.4146   -7.5461 C.3      1 ZINC000672622940   -0.1200
31     C31     1.2224   -8.0061   -7.4283 C.3      1 ZINC000672622940    0.1100
32     C32    -0.3669   -2.7598   -2.6150 C.3      1 ZINC000672622940   -0.1100
33     H33    -0.0239    1.9538   -0.1749 H        1 ZINC000672622940    0.0600
34     H34    -1.6308    1.5910   -0.8491 H        1 ZINC000672622940    0.0800
35     H35    -1.3975    1.6464    0.9146 H        1 ZINC000672622940    0.0700
36     H36    -1.2011   -1.1192    1.6754 H        1 ZINC000672622940    0.0600
37     H37     0.4001   -1.5499    1.0280 H        1 ZINC000672622940    0.0800
38     H38     0.1782   -0.0183    1.9074 H        1 ZINC000672622940    0.0700
39     H39    -1.2361   -2.5775    0.7150 H        1 ZINC000672622940    0.0800
40     H40    -2.2986   -2.8190   -0.6926 H        1 ZINC000672622940    0.0700
41     H41     0.0525   -4.6016    0.0896 H        1 ZINC000672622940    0.0700
42     H42    -1.6683   -4.9885    0.3294 H        1 ZINC000672622940    0.0700
43     H43    -0.7927   -6.0625   -1.7270 H        1 ZINC000672622940    0.0700
44     H44    -2.0396   -4.8541   -2.1186 H        1 ZINC000672622940    0.0700
45     H45    -0.6632   -4.3287   -4.6380 H        1 ZINC000672622940    0.4100
46     H46     2.7689   -8.4665   -5.0809 H        1 ZINC000672622940    0.0700
47     H47     1.4256   -8.0154   -3.9995 H        1 ZINC000672622940    0.1400
48     H48     1.5744  -10.4980   -4.4079 H        1 ZINC000672622940    0.0800
49     H49     0.0236   -9.7951   -4.9288 H        1 ZINC000672622940    0.0800
50     H50     2.4143  -10.3453   -6.7456 H        1 ZINC000672622940    0.0900
51     H51     1.4779  -15.7585   -6.4665 H        1 ZINC000672622940    0.1000
52     H52     0.7321  -15.7192   -8.0949 H        1 ZINC000672622940    0.1000
53     H53     3.4635  -15.3885   -7.6813 H        1 ZINC000672622940    0.1100
54     H54     2.5919  -14.6257   -9.0531 H        1 ZINC000672622940    0.0900
55     H55     3.4480  -13.4099   -6.4098 H        1 ZINC000672622940    0.1000
56     H56     3.3340  -12.6401   -8.0204 H        1 ZINC000672622940    0.1000
57     H57     0.8009   -9.7904   -8.5572 H        1 ZINC000672622940    0.0800
58     H58    -0.4240   -9.3857   -7.3299 H        1 ZINC000672622940    0.0800
59     H59     0.6607   -7.3257   -8.0685 H        1 ZINC000672622940    0.1000
60     H60     2.2696   -8.0146   -7.7306 H        1 ZINC000672622940    0.0800
61     H61    -1.3745   -2.6148   -3.0049 H        1 ZINC000672622940    0.0800
62     H62     0.3463   -2.2279   -3.2447 H        1 ZINC000672622940    0.0800
@<TRIPOS>BOND
1     1     2     1
2     1     33    1
3     1     34    1
4     1     35    1
5     2     3     1
6     2     4     am
7     3     36    1
8     3     37    1
9     3     38    1
10    4     5     2
11    4     6     1
12    6     7     1
13    6     32    1
14    6     8     1
15    8     9     1
16    8     39    1
17    8     40    1
18    9     10    1
19    9     41    1
20    9     42    1
21    10    11    1
22    10    43    1
23    10    44    1
24    11    12    1
25    11    13    1
26    11    32    1
27    13    14    am
28    13    45    1
29    14    15    2
30    14    16    1
31    16    17    2
32    16    18    am
33    18    31    1
34    18    19    1
35    19    20    1
36    19    46    1
37    19    47    1
38    20    21    1
39    20    48    1
40    20    49    1
41    21    22    1
42    21    30    1
43    21    50    1
44    22    29    1
45    22    23    2
46    23    24    1
47    24    25    2
48    25    29    1
49    25    26    1
50    26    27    1
51    26    51    1
52    26    52    1
53    27    28    1
54    27    53    1
55    27    54    1
56    28    29    1
57    28    55    1
58    28    56    1
59    30    31    1
60    30    57    1
61    30    58    1
62    31    59    1
63    31    60    1
64    32    61    1
65    32    62    1
@<TRIPOS>SUBSTRUCTURE
1   ZINC000672622940 1     RESIDUE    1   A     ZIN   1
@<TRIPOS>MOLECULE
ZINC000501032137
48	50	1	0	0
SMALL
USER_CHARGES
@<TRIPOS>ATOM
1      C1     -0.0187    1.5258    0.0104 C.3      1 ZINC000501032137   -0.1500
2      C2      0.0021   -0.0041    0.0020 C.3      1 ZINC000501032137   -0.1200
3      C3      0.7182   -0.4975   -1.2568 C.3      1 ZINC000501032137    0.0600
4      O4      0.7376   -1.9263   -1.2646 O.3      1 ZINC000501032137   -0.3800
5      C5      1.3873   -2.4925   -2.4045 C.3      1 ZINC000501032137    0.0500
6      C6      1.3486   -4.0190   -2.3077 C.3      1 ZINC000501032137    0.1600
7      H7      1.7643   -4.4514   -3.2178 H        1 ZINC000501032137    0.1000
8      C8     -0.0995   -4.4827   -2.1380 C.3      1 ZINC000501032137   -0.0900
9      C9     -0.1513   -5.9885   -2.1658 C.ar     1 ZINC000501032137   -0.0600
10     C10    -0.3173   -6.6521   -3.3669 C.ar     1 ZINC000501032137   -0.0900
11     C11    -0.3649   -8.0337   -3.3930 C.ar     1 ZINC000501032137   -0.1100
12     C12    -0.2466   -8.7517   -2.2182 C.ar     1 ZINC000501032137   -0.0900
13     C13    -0.0805   -8.0879   -1.0158 C.ar     1 ZINC000501032137   -0.0800
14     Br14    0.0814   -9.0699    0.5922 Br       1 ZINC000501032137   -0.0600
15     C15    -0.0272   -6.7061   -0.9908 C.ar     1 ZINC000501032137   -0.0800
16     N16     2.1394   -4.4554   -1.1543 N.am     1 ZINC000501032137   -0.7100
17     C17     2.6740   -5.6924   -1.1329 C.2      1 ZINC000501032137    0.6100
18     O18     2.4999   -6.4463   -2.0711 O.2      1 ZINC000501032137   -0.5200
19     C19     3.4698   -6.1315    0.0277 C.2      1 ZINC000501032137   -0.0800
20     C20     4.0711   -7.3423    0.1843 C.2      1 ZINC000501032137    0.0800
21     C21     4.0495   -8.4878   -0.7947 C.3      1 ZINC000501032137   -0.0800
22     C22     4.9598   -9.6827   -0.5041 C.3      1 ZINC000501032137   -0.1700
23     C23     3.4463   -9.8114   -0.3202 C.3      1 ZINC000501032137   -0.1500
24     O24     4.6875   -7.3219    1.3768 O.3      1 ZINC000501032137   -0.2000
25     C25     4.4701   -6.1254    1.9408 C.2      1 ZINC000501032137    0.1800
26     N26     3.7464   -5.4004    1.1414 N.2      1 ZINC000501032137   -0.4600
27     H27     1.0039    1.9031    0.0027 H        1 ZINC000501032137    0.0600
28     H28    -0.5459    1.8868   -0.8726 H        1 ZINC000501032137    0.0600
29     H29    -0.5289    1.8773    0.9072 H        1 ZINC000501032137    0.0600
30     H30     0.5293   -0.3651    0.8851 H        1 ZINC000501032137    0.0700
31     H31    -1.0205   -0.3814    0.0098 H        1 ZINC000501032137    0.0700
32     H32     0.1910   -0.1364   -2.1398 H        1 ZINC000501032137    0.0500
33     H33     1.7408   -0.1202   -1.2645 H        1 ZINC000501032137    0.0500
34     H34     0.8740   -2.1729   -3.3114 H        1 ZINC000501032137    0.0700
35     H35     2.4238   -2.1566   -2.4361 H        1 ZINC000501032137    0.0600
36     H36    -0.4867   -4.1234   -1.1846 H        1 ZINC000501032137    0.0900
37     H37    -0.7065   -4.0832   -2.9504 H        1 ZINC000501032137    0.0800
38     H38    -0.4101   -6.0913   -4.2852 H        1 ZINC000501032137    0.1200
39     H39    -0.4949   -8.5518   -4.3317 H        1 ZINC000501032137    0.1300
40     H40    -0.2841   -9.8309   -2.2387 H        1 ZINC000501032137    0.1300
41     H41     0.1028   -6.1875   -0.0524 H        1 ZINC000501032137    0.1200
42     H42     2.2783   -3.8540   -0.4060 H        1 ZINC000501032137    0.4100
43     H43     3.8988   -8.2115   -1.8383 H        1 ZINC000501032137    0.1500
44     H44     5.4083  -10.1927   -1.3567 H        1 ZINC000501032137    0.1100
45     H45     5.5742   -9.6404    0.3951 H        1 ZINC000501032137    0.1000
46     H46     3.0651   -9.8537    0.7001 H        1 ZINC000501032137    0.1000
47     H47     2.8992  -10.4061   -1.0517 H        1 ZINC000501032137    0.1100
48     H48     4.8409   -5.8122    2.9056 H        1 ZINC000501032137    0.2500
@<TRIPOS>BOND
1     1     2     1
2     1     27    1
3     1     28    1
4     1     29    1
5     2     3     1
6     2     30    1
7     2     31    1
8     3     4     1
9     3     32    1
10    3     33    1
11    4     5     1
12    5     6     1
13    5     34    1
14    5     35    1
15    6     7     1
16    6     8     1
17    6     16    1
18    8     9     1
19    8     36    1
20    8     37    1
21    9     15    ar
22    9     10    ar
23    10    11    ar
24    10    38    1
25    11    12    ar
26    11    39    1
27    12    13    ar
28    12    40    1
29    13    14    1
30    13    15    ar
31    15    41    1
32    16    17    am
33    16    42    1
34    17    18    2
35    17    19    1
36    19    26    1
37    19    20    2
38    20    21    1
39    20    24    1
40    21    23    1
41    21    22    1
42    21    43    1
43    22    23    1
44    22    44    1
45    22    45    1
46    23    46    1
47    23    47    1
48    24    25    1
49    25    26    2
50    25    48    1
@<TRIPOS>SUBSTRUCTURE
1   ZINC000501032137 1     RESIDUE    1   A     ZIN   1
@<TRIPOS>MOLECULE
ZINC001018437438
47	49	1	0	0
SMALL
USER_CHARGES
@<TRIPOS>ATOM
1      C1      0.0086    1.5278   -0.0059 C.3      1 ZINC001018437438   -0.1400
2      C2      0.0158   -0.0021   -0.0070 C.3      1 ZINC001018437438    0.1400
3      H3     -1.0054   -0.3724    0.0835 H        1 ZINC001018437438    0.0700
4      C4      0.6330   -0.5119   -1.3131 C.3      1 ZINC001018437438   -0.1300
5      C5      0.7650   -2.0353   -1.2499 C.3      1 ZINC001018437438   -0.1300
6      C6      1.6918   -2.4212   -0.0948 C.3      1 ZINC001018437438    0.1300
7      H7      2.6675   -1.9579   -0.2409 H        1 ZINC001018437438    0.1000
8      N8      1.8431   -3.8778   -0.0550 N.am     1 ZINC001018437438   -0.7200
9      C9      2.9427   -4.4262    0.4986 C.2      1 ZINC001018437438    0.6000
10     O10     3.8095   -3.7118    0.9652 O.2      1 ZINC001018437438   -0.5100
11     C11     3.0947   -5.8894    0.5386 C.2      1 ZINC001018437438   -0.0400
12     C12     4.1549   -6.6001    1.0739 C.2      1 ZINC001018437438   -0.1400
13     C13     3.8381   -7.9454    0.8718 C.2      1 ZINC001018437438    0.0600
14     C14     4.6800   -9.1263    1.2810 C.3      1 ZINC001018437438   -0.0800
15     C15     5.7924   -8.8808    2.3024 C.3      1 ZINC001018437438   -0.1700
16     C16     4.5289   -9.6387    2.7148 C.3      1 ZINC001018437438   -0.1600
17     N17     2.6800   -7.9982    0.2647 N.2      1 ZINC001018437438   -0.2600
18     N18     2.2150   -6.8184    0.0601 N.pl3    1 ZINC001018437438   -0.3800
19     C19     1.0866   -1.9331    1.2251 C.3      1 ZINC001018437438    0.1000
20     N20     0.8190   -0.4917    1.1216 N.am     1 ZINC001018437438   -0.6100
21     C21     1.3054    0.3648    2.0415 C.2      1 ZINC001018437438    0.5200
22     O22     0.9925    1.5360    2.0049 O.2      1 ZINC001018437438   -0.4800
23     C23     2.2382   -0.1328    3.1155 C.3      1 ZINC001018437438   -0.1700
24     C24     2.6335    1.0149    4.0087 C.2      1 ZINC001018437438    0.5200
25     N25     3.4683    0.8050    5.0458 N.am     1 ZINC001018437438   -0.8600
26     O26     2.2005    2.1272    3.7942 O.2      1 ZINC001018437438   -0.5000
27     H27     1.0345    1.8960    0.0048 H        1 ZINC001018437438    0.0700
28     H28    -0.4978    1.8894   -0.9008 H        1 ZINC001018437438    0.0500
29     H29    -0.5160    1.8881    0.8790 H        1 ZINC001018437438    0.0800
30     H30    -0.0085   -0.2367   -2.1503 H        1 ZINC001018437438    0.0900
31     H31     1.6187   -0.0666   -1.4478 H        1 ZINC001018437438    0.0700
32     H32    -0.2180   -2.4786   -1.0905 H        1 ZINC001018437438    0.0700
33     H33     1.1811   -2.4030   -2.1878 H        1 ZINC001018437438    0.0800
34     H34     1.1519   -4.4476   -0.4271 H        1 ZINC001018437438    0.4000
35     H35     5.0392   -6.1997    1.5472 H        1 ZINC001018437438    0.1700
36     H36     4.8669   -9.8636    0.5002 H        1 ZINC001018437438    0.1200
37     H37     6.7116   -9.4565    2.1936 H        1 ZINC001018437438    0.1000
38     H38     5.9153   -7.8651    2.6783 H        1 ZINC001018437438    0.1000
39     H39     3.8205   -9.1216    3.3620 H        1 ZINC001018437438    0.1000
40     H40     4.6168  -10.7129    2.8772 H        1 ZINC001018437438    0.1000
41     H41     1.3712   -6.6177   -0.3741 H        1 ZINC001018437438    0.4400
42     H42     0.1536   -2.4629    1.4173 H        1 ZINC001018437438    0.0700
43     H43     1.7880   -2.1171    2.0389 H        1 ZINC001018437438    0.0900
44     H44     1.7355   -0.8975    3.7076 H        1 ZINC001018437438    0.1200
45     H45     3.1295   -0.5580    2.6543 H        1 ZINC001018437438    0.1200
46     H46     3.8146   -0.0846    5.2174 H        1 ZINC001018437438    0.4000
47     H47     3.7227    1.5437    5.6207 H        1 ZINC001018437438    0.4000
@<TRIPOS>BOND
1     1     2     1
2     1     27    1
3     1     28    1
4     1     29    1
5     2     3     1
6     2     20    1
7     2     4     1
8     4     5     1
9     4     30    1
10    4     31    1
11    5     6     1
12    5     32    1
13    5     33    1
14    6     7     1
15    6     8     1
16    6     19    1
17    8     9     am
18    8     34    1
19    9     10    2
20    9     11    1
21    11    18    1
22    11    12    2
23    12    13    1
24    12    35    1
25    13    14    1
26    13    17    2
27    14    16    1
28    14    15    1
29    14    36    1
30    15    16    1
31    15    37    1
32    15    38    1
33    16    39    1
34    16    40    1
35    17    18    1
36    18    41    1
37    19    20    1
38    19    42    1
39    19    43    1
40    20    21    am
41    21    22    2
42    21    23    1
43    23    24    1
44    23    44    1
45    23    45    1
46    24    25    am
47    24    26    2
48    25    46    1
49    25    47    1
@<TRIPOS>SUBSTRUCTURE
1   ZINC001018437438 1     RESIDUE    1   A     ZIN   1
@<TRIPOS>MOLECULE
ZINC001326371752
41	44	1	0	0
SMALL
USER_CHARGES
@<TRIPOS>ATOM
1      C1     -0.0299    1.6433   -0.2598 C.3      1 ZINC001326371752    0.0300
2      O2     -0.0013    0.2160   -0.1952 O.3      1 ZINC001326371752   -0.3800
3      C3     -1.2947   -0.3898   -0.1490 C.3      1 ZINC001326371752    0.0500
4      C4     -1.1434   -1.9108   -0.0818 C.3      1 ZINC001326371752    0.1200
5      N5     -2.4694   -2.5318   -0.0344 N.pl3    1 ZINC001326371752   -0.2800
6      N6     -3.1433   -2.8007    1.0333 N.2      1 ZINC001326371752   -0.0800
7      N7     -4.2708   -3.3469    0.7244 N.2      1 ZINC001326371752   -0.2500
8      C8     -4.3460   -3.4438   -0.5980 C.2      1 ZINC001326371752   -0.0400
9      C9     -3.2003   -2.9164   -1.0960 C.2      1 ZINC001326371752    0.0000
10     C10    -2.8700   -2.8143   -2.5607 C.3      1 ZINC001326371752   -0.0600
11     C11    -3.7811   -3.7721   -3.3399 C.3      1 ZINC001326371752    0.1200
12     N12    -5.1600   -3.6363   -2.8479 N.am     1 ZINC001326371752   -0.6100
13     C13    -6.1376   -3.1758   -3.6533 C.2      1 ZINC001326371752    0.6100
14     O14    -5.8665   -2.7687   -4.7677 O.2      1 ZINC001326371752   -0.5100
15     C15    -7.5288   -3.1652   -3.1866 C.2      1 ZINC001326371752   -0.3400
16     C16    -8.2494   -4.3591   -3.0665 C.2      1 ZINC001326371752    0.2400
17     N17    -9.4984   -4.3119   -2.6437 N.2      1 ZINC001326371752   -0.5100
18     C18   -10.0896   -3.1667   -2.3298 C.2      1 ZINC001326371752    0.2900
19     S19   -11.6846   -2.8474   -1.7635 S.3      1 ZINC001326371752    0.2500
20     C20   -11.4587   -1.0942   -1.6615 C.2      1 ZINC001326371752   -0.2100
21     C21   -10.2154   -0.8763   -2.0555 C.2      1 ZINC001326371752    0.0500
22     N22    -9.4606   -1.9655   -2.4185 N.am     1 ZINC001326371752   -0.4600
23     C23    -8.1634   -1.9510   -2.8449 C.2      1 ZINC001326371752    0.5500
24     O24    -7.5588   -0.8965   -2.9343 O.2      1 ZINC001326371752   -0.5000
25     C25    -5.4505   -4.0120   -1.4525 C.3      1 ZINC001326371752    0.2000
26     H26     0.9901    2.0260   -0.2919 H        1 ZINC001326371752    0.0900
27     H27    -0.5637    1.9557   -1.1574 H        1 ZINC001326371752    0.0500
28     H28    -0.5381    2.0367    0.6205 H        1 ZINC001326371752    0.0500
29     H29    -1.8292   -0.0385    0.7337 H        1 ZINC001326371752    0.0600
30     H30    -1.8547   -0.1196   -1.0443 H        1 ZINC001326371752    0.0600
31     H31    -0.6090   -2.2621   -0.9644 H        1 ZINC001326371752    0.1200
32     H32    -0.5835   -2.1810    0.8135 H        1 ZINC001326371752    0.1200
33     H33    -3.0361   -1.7927   -2.9025 H        1 ZINC001326371752    0.0900
34     H34    -1.8277   -3.0904   -2.7204 H        1 ZINC001326371752    0.1000
35     H35    -3.7471   -3.5246   -4.4009 H        1 ZINC001326371752    0.1100
36     H36    -3.4416   -4.7975   -3.1934 H        1 ZINC001326371752    0.0800
37     H37    -7.7903   -5.3042   -3.3163 H        1 ZINC001326371752    0.1900
38     H38   -12.1832   -0.3585   -1.3450 H        1 ZINC001326371752    0.2200
39     H39    -9.8075    0.1230   -2.0908 H        1 ZINC001326371752    0.2000
40     H40    -5.4664   -5.0976   -1.3560 H        1 ZINC001326371752    0.1000
41     H41    -6.4116   -3.5972   -1.1488 H        1 ZINC001326371752    0.1000
@<TRIPOS>BOND
1     1     2     1
2     1     26    1
3     1     27    1
4     1     28    1
5     2     3     1
6     3     4     1
7     3     29    1
8     3     30    1
9     4     5     1
10    4     31    1
11    4     32    1
12    5     9     1
13    5     6     1
14    6     7     2
15    7     8     1
16    8     25    1
17    8     9     2
18    9     10    1
19    10    11    1
20    10    33    1
21    10    34    1
22    11    12    1
23    11    35    1
24    11    36    1
25    12    13    am
26    12    25    1
27    13    14    2
28    13    15    1
29    15    23    1
30    15    16    2
31    16    17    1
32    16    37    1
33    17    18    2
34    18    22    1
35    18    19    1
36    19    20    1
37    20    21    2
38    20    38    1
39    21    22    1
40    21    39    1
41    22    23    am
42    23    24    2
43    25    40    1
44    25    41    1
@<TRIPOS>SUBSTRUCTURE
1   ZINC001326371752 1     RESIDUE    1   A     ZIN   1
@<TRIPOS>MOLECULE
ZINC000740843182
47	48	1	0	0
SMALL
USER_CHARGES
@<TRIPOS>ATOM
1      C1     -0.0187    1.5258    0.0104 C.3      1 ZINC000740843182   -0.1500
2      C2      0.0021   -0.0041    0.0020 C.3      1 ZINC000740843182   -0.1000
3      H3      0.5293   -0.3651    0.8851 H        1 ZINC000740843182    0.0900
4      C4     -1.4333   -0.5336    0.0129 C.3      1 ZINC000740843182    0.1200
5      N5     -2.0815   -0.1618    1.2729 N.am     1 ZINC000740843182   -0.7200
6      C6     -3.3585   -0.5240    1.5064 C.2      1 ZINC000740843182    0.5500
7      O7     -3.9725   -1.1592    0.6714 O.2      1 ZINC000740843182   -0.5000
8      C8     -4.0124   -0.1488    2.7776 C.ar     1 ZINC000740843182   -0.1300
9      C9     -3.3123    0.5855    3.7361 C.ar     1 ZINC000740843182    0.0200
10     C10    -3.9287    0.9329    4.9203 C.ar     1 ZINC000740843182   -0.6800
11     S11    -3.0462    1.8599    6.1313 S.o2     1 ZINC000740843182    2.7000
12     O12    -3.6745    1.5929    7.3775 O.2      1 ZINC000740843182   -0.9400
13     O13    -1.6659    1.6233    5.8904 O.2      1 ZINC000740843182   -0.9500
14     N14    -3.3091    3.4629    5.8091 N.am     1 ZINC000740843182   -1.0900
15     C15    -4.6569    4.0234    5.9326 C.3      1 ZINC000740843182    0.0800
16     C16    -4.7784    5.4741    6.4033 C.3      1 ZINC000740843182   -0.1800
17     C17    -5.0604    5.1177    4.9423 C.3      1 ZINC000740843182   -0.1900
18     C18    -5.2383    0.5556    5.1595 C.ar     1 ZINC000740843182    0.0100
19     C19    -5.9388   -0.1722    4.2146 C.ar     1 ZINC000740843182   -0.1200
20     C20    -5.3360   -0.5226    3.0229 C.ar     1 ZINC000740843182    0.0100
21     Br21   -6.2948   -1.5177    1.7320 Br       1 ZINC000740843182    0.0100
22     C22     0.7182   -0.4975   -1.2568 C.3      1 ZINC000740843182   -0.1400
23     C23     2.1873   -0.0730   -1.2073 C.3      1 ZINC000740843182    0.1000
24     H24     2.2492    1.0061   -1.0668 H        1 ZINC000740843182    0.1000
25     C25     2.8736   -0.4567   -2.5198 C.3      1 ZINC000740843182   -0.1900
26     O26     2.8374   -0.7330   -0.1192 O.3      1 ZINC000740843182   -0.5600
27     H27     1.0039    1.9031    0.0027 H        1 ZINC000740843182    0.0600
28     H28    -0.5459    1.8868   -0.8726 H        1 ZINC000740843182    0.0600
29     H29    -0.5289    1.8773    0.9072 H        1 ZINC000740843182    0.0500
30     H30    -1.9862   -0.1019   -0.8214 H        1 ZINC000740843182    0.0700
31     H31    -1.4207   -1.6194   -0.0826 H        1 ZINC000740843182    0.0700
32     H32    -1.5916    0.3451    1.9392 H        1 ZINC000740843182    0.4000
33     H33    -2.2901    0.8809    3.5511 H        1 ZINC000740843182    0.1500
34     H34    -2.5706    4.0306    5.5386 H        1 ZINC000740843182    0.4200
35     H35    -5.4295    3.3239    6.2520 H        1 ZINC000740843182    0.1400
36     H36    -5.6309    5.7293    7.0327 H        1 ZINC000740843182    0.1100
37     H37    -3.8554    6.0115    6.6210 H        1 ZINC000740843182    0.1000
38     H38    -4.3230    5.4206    4.1990 H        1 ZINC000740843182    0.1000
39     H39    -6.0985    5.1384    4.6106 H        1 ZINC000740843182    0.1100
40     H40    -5.7156    0.8305    6.0885 H        1 ZINC000740843182    0.1600
41     H41    -6.9607   -0.4635    4.4076 H        1 ZINC000740843182    0.1500
42     H42     0.6556   -1.5845   -1.3079 H        1 ZINC000740843182    0.0700
43     H43     0.2444   -0.0644   -2.1377 H        1 ZINC000740843182    0.0800
44     H44     2.3777    0.0468   -3.3497 H        1 ZINC000740843182    0.0700
45     H45     3.9202   -0.1543   -2.4845 H        1 ZINC000740843182    0.0600
46     H46     2.8117   -1.5358   -2.6603 H        1 ZINC000740843182    0.0600
47     H47     2.8211   -1.6981   -0.1783 H        1 ZINC000740843182    0.3700
@<TRIPOS>BOND
1     1     2     1
2     1     27    1
3     1     28    1
4     1     29    1
5     2     3     1
6     2     4     1
7     2     22    1
8     4     5     1
9     4     30    1
10    4     31    1
11    5     6     am
12    5     32    1
13    6     7     2
14    6     8     1
15    8     20    ar
16    8     9     ar
17    9     10    ar
18    9     33    1
19    10    11    1
20    10    18    ar
21    11    12    2
22    11    13    2
23    11    14    am
24    14    15    1
25    14    34    1
26    15    17    1
27    15    16    1
28    15    35    1
29    16    17    1
30    16    36    1
31    16    37    1
32    17    38    1
33    17    39    1
34    18    19    ar
35    18    40    1
36    19    20    ar
37    19    41    1
38    20    21    1
39    22    23    1
40    22    42    1
41    22    43    1
42    23    24    1
43    23    25    1
44    23    26    1
45    25    44    1
46    25    45    1
47    25    46    1
48    26    47    1
@<TRIPOS>SUBSTRUCTURE
1   ZINC000740843182 1     RESIDUE    1   A     ZIN   1
@<TRIPOS>MOLECULE
ZINC000460163972
50	52	1	0	0
SMALL
USER_CHARGES
@<TRIPOS>ATOM
1      C1     -0.1296    0.6620    0.3330 C.3      1 ZINC000460163972   -0.1400
2      C2     -0.0064   -0.8253    0.5420 C.ar     1 ZINC000460163972    0.0100
3      C3     -0.3037   -1.6941   -0.4917 C.ar     1 ZINC000460163972   -0.1300
4      C4     -0.1918   -3.0580   -0.3034 C.ar     1 ZINC000460163972   -0.0600
5      C5      0.2201   -3.5561    0.9254 C.ar     1 ZINC000460163972    0.1100
6      N6      0.3349   -4.9371    1.1193 N.am     1 ZINC000460163972   -0.6700
7      C7     -0.4525   -5.7828    0.4255 C.2      1 ZINC000460163972    0.5200
8      O8     -1.1976   -5.3537   -0.4300 O.2      1 ZINC000460163972   -0.5100
9      C9     -0.4072   -7.2615    0.7126 C.3      1 ZINC000460163972   -0.0700
10     H10     0.6012   -7.6353    0.5353 H        1 ZINC000460163972    0.1200
11     C11    -0.7939   -7.5097    2.1720 C.3      1 ZINC000460163972   -0.1500
12     C12    -1.3752   -7.9788   -0.1926 C.ar     1 ZINC000460163972   -0.0600
13     C13    -2.7209   -7.6663   -0.1504 C.ar     1 ZINC000460163972   -0.0700
14     C14    -3.6110   -8.3231   -0.9798 C.ar     1 ZINC000460163972   -0.1200
15     C15    -3.1548   -9.2941   -1.8537 C.ar     1 ZINC000460163972    0.0700
16     F16    -4.0238   -9.9360   -2.6649 F        1 ZINC000460163972   -0.1300
17     C17    -1.8044   -9.6073   -1.8964 C.ar     1 ZINC000460163972    0.0700
18     F18    -1.3566  -10.5550   -2.7488 F        1 ZINC000460163972   -0.1300
19     C19    -0.9155   -8.9448   -1.0684 C.ar     1 ZINC000460163972   -0.1200
20     C20     0.5184   -2.6807    1.9617 C.ar     1 ZINC000460163972    0.0000
21     C21     0.9663   -3.2171    3.2969 C.3      1 ZINC000460163972   -0.1500
22     C22     0.4091   -1.3182    1.7656 C.ar     1 ZINC000460163972   -0.6700
23     S23     0.7879   -0.2068    3.0793 S.o2     1 ZINC000460163972    2.7000
24     O24     1.5324   -0.9518    4.0332 O.2      1 ZINC000460163972   -0.9500
25     O25     1.2732    0.9824    2.4715 O.2      1 ZINC000460163972   -0.9500
26     N26    -0.6429    0.1925    3.8114 N.am     1 ZINC000460163972   -1.0900
27     C27    -1.4714   -0.8519    4.4187 C.3      1 ZINC000460163972    0.0800
28     C28    -2.2553   -0.4869    5.6810 C.3      1 ZINC000460163972   -0.1800
29     C29    -2.9899   -0.6767    4.3524 C.3      1 ZINC000460163972   -0.1900
30     H30     0.8435    1.0729    0.0639 H        1 ZINC000460163972    0.1000
31     H31    -0.8414    0.8586   -0.4688 H        1 ZINC000460163972    0.0800
32     H32    -0.4799    1.1303    1.2528 H        1 ZINC000460163972    0.0700
33     H33    -0.6240   -1.3060   -1.4473 H        1 ZINC000460163972    0.1400
34     H34    -0.4248   -3.7361   -1.1111 H        1 ZINC000460163972    0.1600
35     H35     0.9811   -5.2859    1.7530 H        1 ZINC000460163972    0.4100
36     H36    -0.7611   -8.5792    2.3796 H        1 ZINC000460163972    0.0800
37     H37    -0.0937   -6.9908    2.8267 H        1 ZINC000460163972    0.0700
38     H38    -1.8023   -7.1359    2.3493 H        1 ZINC000460163972    0.0700
39     H39    -3.0776   -6.9086    0.5315 H        1 ZINC000460163972    0.1400
40     H40    -4.6623   -8.0785   -0.9454 H        1 ZINC000460163972    0.1500
41     H41     0.1364   -9.1876   -1.1009 H        1 ZINC000460163972    0.1500
42     H42     2.0548   -3.1963    3.3502 H        1 ZINC000460163972    0.1000
43     H43     0.5516   -2.6000    4.0940 H        1 ZINC000460163972    0.1000
44     H44     0.6164   -4.2430    3.4123 H        1 ZINC000460163972    0.0700
45     H45    -0.9323    1.1180    3.8380 H        1 ZINC000460163972    0.4200
46     H46    -1.0781   -1.8658    4.3458 H        1 ZINC000460163972    0.1300
47     H47    -2.3777   -1.2607    6.4388 H        1 ZINC000460163972    0.1100
48     H48    -2.1545    0.5303    6.0595 H        1 ZINC000460163972    0.1000
49     H49    -3.3724    0.2156    3.8568 H        1 ZINC000460163972    0.1000
50     H50    -3.5956   -1.5755    4.2361 H        1 ZINC000460163972    0.1000
@<TRIPOS>BOND
1     1     2     1
2     1     30    1
3     1     31    1
4     1     32    1
5     2     22    ar
6     2     3     ar
7     3     4     ar
8     3     33    1
9     4     5     ar
10    4     34    1
11    5     6     1
12    5     20    ar
13    6     7     am
14    6     35    1
15    7     8     2
16    7     9     1
17    9     10    1
18    9     11    1
19    9     12    1
20    11    36    1
21    11    37    1
22    11    38    1
23    12    19    ar
24    12    13    ar
25    13    14    ar
26    13    39    1
27    14    15    ar
28    14    40    1
29    15    16    1
30    15    17    ar
31    17    18    1
32    17    19    ar
33    19    41    1
34    20    21    1
35    20    22    ar
36    21    42    1
37    21    43    1
38    21    44    1
39    22    23    1
40    23    24    2
41    23    25    2
42    23    26    am
43    26    27    1
44    26    45    1
45    27    29    1
46    27    28    1
47    27    46    1
48    28    29    1
49    28    47    1
50    28    48    1
51    29    49    1
52    29    50    1
@<TRIPOS>SUBSTRUCTURE
1   ZINC000460163972 1     RESIDUE    1   A     ZIN   1
@<TRIPOS>MOLECULE
ZINC000432833246
47	51	1	0	0
SMALL
USER_CHARGES
@<TRIPOS>ATOM
1      O1      0.0021   -0.0041    0.0020 O.2      1 ZINC000432833246   -0.5200
2      C2     -0.0144    1.2086    0.0087 C.2      1 ZINC000432833246    0.5200
3      C3     -1.2660    2.0581    0.0318 C.3      1 ZINC000432833246   -0.1500
4      C4     -0.7654    3.4595    0.4519 C.3      1 ZINC000432833246   -0.1100
5      H5     -0.8397    3.5928    1.5312 H        1 ZINC000432833246    0.1000
6      C6     -1.5315    4.5587   -0.2868 C.3      1 ZINC000432833246    0.1300
7      N7     -2.9313    4.5534    0.1455 N.pl3    1 ZINC000432833246   -0.7200
8      C8     -3.8258    5.4675   -0.3902 C.ar     1 ZINC000432833246    0.2800
9      C9     -5.1815    5.4860    0.0155 C.ar     1 ZINC000432833246   -0.1500
10     C10    -5.6693    4.5843    0.9716 C.ar     1 ZINC000432833246   -0.0700
11     C11    -6.9810    4.6334    1.3369 C.ar     1 ZINC000432833246   -0.1300
12     C12    -7.8447    5.5685    0.7720 C.ar     1 ZINC000432833246   -0.0600
13     C13    -7.4033    6.4589   -0.1595 C.ar     1 ZINC000432833246   -0.0800
14     Br14   -8.5980    7.7183   -0.9097 Br       1 ZINC000432833246   -0.0300
15     C15    -6.0555    6.4383   -0.5607 C.ar     1 ZINC000432833246    0.1900
16     N16    -5.5951    7.3015   -1.4731 N.ar     1 ZINC000432833246   -0.5000
17     C17    -4.3397    7.2944   -1.8572 C.ar     1 ZINC000432833246    0.2400
18     C18    -3.8841    8.2935   -2.8892 C.3      1 ZINC000432833246   -0.1100
19     C19    -2.5513    8.0259   -3.5914 C.3      1 ZINC000432833246   -0.1700
20     C20    -3.8667    7.8414   -4.3508 C.3      1 ZINC000432833246   -0.1600
21     C21    -3.4192    6.3958   -1.3359 C.ar     1 ZINC000432833246   -0.2700
22     C22     0.7113    3.4148    0.0007 C.3      1 ZINC000432833246    0.1100
23     N23     1.0769    1.9934    0.0025 N.am     1 ZINC000432833246   -0.5900
24     C24     2.4541    1.4941   -0.0100 C.3      1 ZINC000432833246    0.0800
25     C25     2.6632   -0.0073    0.1972 C.3      1 ZINC000432833246   -0.1900
26     C26     2.8747    0.6108   -1.1863 C.3      1 ZINC000432833246   -0.1900
27     H27    -1.7196    2.0961   -0.9586 H        1 ZINC000432833246    0.1100
28     H28    -1.9759    1.6715    0.7630 H        1 ZINC000432833246    0.1000
29     H29    -1.0852    5.5272   -0.0610 H        1 ZINC000432833246    0.0800
30     H30    -1.4821    4.3773   -1.3605 H        1 ZINC000432833246    0.0700
31     H31    -3.2323    3.9104    0.8064 H        1 ZINC000432833246    0.4000
32     H32    -5.0090    3.8543    1.4160 H        1 ZINC000432833246    0.1300
33     H33    -7.3558    3.9382    2.0736 H        1 ZINC000432833246    0.1400
34     H34    -8.8805    5.5877    1.0769 H        1 ZINC000432833246    0.1400
35     H35    -4.1470    9.3317   -2.6867 H        1 ZINC000432833246    0.1300
36     H36    -1.9371    8.8882   -3.8508 H        1 ZINC000432833246    0.1000
37     H37    -2.0041    7.1272   -3.3069 H        1 ZINC000432833246    0.1000
38     H38    -4.1848    6.8213   -4.5659 H        1 ZINC000432833246    0.0900
39     H39    -4.1178    8.5823   -5.1098 H        1 ZINC000432833246    0.1000
40     H40    -2.3929    6.4146   -1.6714 H        1 ZINC000432833246    0.1400
41     H41     0.8125    3.8329   -1.0008 H        1 ZINC000432833246    0.0800
42     H42     1.3374    3.9635    0.7043 H        1 ZINC000432833246    0.0900
43     H43     3.2026    2.1688    0.4055 H        1 ZINC000432833246    0.1300
44     H44     3.5492   -0.3207    0.7493 H        1 ZINC000432833246    0.1000
45     H45     1.7760   -0.6236    0.3428 H        1 ZINC000432833246    0.1300
46     H46     2.1267    0.4011   -1.9509 H        1 ZINC000432833246    0.0900
47     H47     3.9000    0.7041   -1.5444 H        1 ZINC000432833246    0.1000
@<TRIPOS>BOND
1     1     2     2
2     2     23    am
3     2     3     1
4     3     4     1
5     3     27    1
6     3     28    1
7     4     5     1
8     4     6     1
9     4     22    1
10    6     7     1
11    6     29    1
12    6     30    1
13    7     8     1
14    7     31    1
15    8     21    ar
16    8     9     ar
17    9     15    ar
18    9     10    ar
19    10    11    ar
20    10    32    1
21    11    12    ar
22    11    33    1
23    12    13    ar
24    12    34    1
25    13    14    1
26    13    15    ar
27    15    16    ar
28    16    17    ar
29    17    18    1
30    17    21    ar
31    18    20    1
32    18    19    1
33    18    35    1
34    19    20    1
35    19    36    1
36    19    37    1
37    20    38    1
38    20    39    1
39    21    40    1
40    22    23    1
41    22    41    1
42    22    42    1
43    23    24    1
44    24    26    1
45    24    25    1
46    24    43    1
47    25    26    1
48    25    44    1
49    25    45    1
50    26    46    1
51    26    47    1
@<TRIPOS>SUBSTRUCTURE
1   ZINC000432833246 1     RESIDUE    1   A     ZIN   1
@<TRIPOS>MOLECULE
ZINC001109404798
49	52	1	0	0
SMALL
USER_CHARGES
@<TRIPOS>ATOM
1      C1      0.3234    1.4180    0.2058 C.3      1 ZINC001109404798   -0.0600
2      C2      0.2675   -0.0866    0.1416 C.2      1 ZINC001109404798    0.1700
3      N3      0.1976   -0.8083   -0.9368 N.2      1 ZINC001109404798   -0.3900
4      O4      0.1684   -1.9870   -0.6521 O.3      1 ZINC001109404798    0.1000
5      C5      0.2184   -2.1337    0.6753 C.2      1 ZINC001109404798    0.1900
6      C6      0.2046   -3.4347    1.4357 C.3      1 ZINC001109404798    0.1600
7      H7     -0.0108   -3.2394    2.4862 H        1 ZINC001109404798    0.1000
8      C8      1.5712   -4.1118    1.3127 C.3      1 ZINC001109404798   -0.1500
9      N9     -0.8304   -4.3162    0.8792 N.3      1 ZINC001109404798   -0.4800
10     C10    -2.1982   -3.7018    1.0249 C.3      1 ZINC001109404798    0.0400
11     H11    -2.3609   -2.7693    0.4844 H        1 ZINC001109404798    0.1100
12     C12    -2.3205   -3.6109    2.5759 C.3      1 ZINC001109404798   -0.1600
13     C13    -1.5345   -4.8484    3.0741 C.3      1 ZINC001109404798   -0.1600
14     C14    -1.0423   -5.5217    1.7575 C.3      1 ZINC001109404798    0.0400
15     H15    -0.1879   -6.1905    1.8618 H        1 ZINC001109404798    0.1200
16     C16    -2.3187   -6.1541    1.1253 C.3      1 ZINC001109404798    0.1500
17     H17    -2.0524   -6.8034    0.2913 H        1 ZINC001109404798    0.1000
18     N18    -3.0794   -6.8971    2.1329 N.am     1 ZINC001109404798   -0.7200
19     C19    -2.7689   -8.1811    2.4002 C.2      1 ZINC001109404798    0.5100
20     O20    -1.8597   -8.7214    1.8066 O.2      1 ZINC001109404798   -0.5300
21     C21    -3.5514   -8.9455    3.4368 C.3      1 ZINC001109404798   -0.1300
22     C22    -3.0001  -10.3686    3.5451 C.3      1 ZINC001109404798   -0.0400
23     C23    -3.7826  -11.1330    4.5816 C.2      1 ZINC001109404798   -0.1000
24     C24    -3.4382  -11.1528    5.8701 C.2      1 ZINC001109404798   -0.2100
25     S25    -4.5795  -12.1429    6.7705 S.3      1 ZINC001109404798    0.1000
26     C26    -5.4870  -12.4842    5.3031 C.2      1 ZINC001109404798   -0.2100
27     C27    -4.9166  -11.8629    4.2697 C.2      1 ZINC001109404798   -0.1300
28     C28    -3.1073   -4.8939    0.5989 C.3      1 ZINC001109404798   -0.1100
29     N29     0.2868   -0.9293    1.1896 N.2      1 ZINC001109404798   -0.4800
30     H30     1.3628    1.7447    0.1734 H        1 ZINC001109404798    0.0900
31     H31    -0.2161    1.8382   -0.6430 H        1 ZINC001109404798    0.0900
32     H32    -0.1360    1.7593    1.1334 H        1 ZINC001109404798    0.0900
33     H33     2.3392   -3.4577    1.7256 H        1 ZINC001109404798    0.0700
34     H34     1.5612   -5.0528    1.8627 H        1 ZINC001109404798    0.0800
35     H35     1.7867   -4.3071    0.2622 H        1 ZINC001109404798    0.0800
36     H36    -1.8633   -2.6923    2.9437 H        1 ZINC001109404798    0.0700
37     H37    -3.3647   -3.6706    2.8826 H        1 ZINC001109404798    0.0800
38     H38    -0.6877   -4.5432    3.6888 H        1 ZINC001109404798    0.0700
39     H39    -2.1891   -5.5214    3.6278 H        1 ZINC001109404798    0.0800
40     H40    -3.8066   -6.4651    2.6077 H        1 ZINC001109404798    0.4000
41     H41    -3.4609   -8.4463    4.4015 H        1 ZINC001109404798    0.0900
42     H42    -4.6009   -8.9837    3.1446 H        1 ZINC001109404798    0.1000
43     H43    -3.0907  -10.8677    2.5803 H        1 ZINC001109404798    0.0800
44     H44    -1.9507  -10.3304    3.8373 H        1 ZINC001109404798    0.0800
45     H45    -2.5883  -10.6398    6.2954 H        1 ZINC001109404798    0.1600
46     H46    -6.3733  -13.0989    5.2480 H        1 ZINC001109404798    0.1600
47     H47    -5.3055  -11.9308    3.2644 H        1 ZINC001109404798    0.1400
48     H48    -4.0755   -4.8131    1.0932 H        1 ZINC001109404798    0.0800
49     H49    -3.2305   -4.9426   -0.4830 H        1 ZINC001109404798    0.0900
@<TRIPOS>BOND
1     1     2     1
2     1     30    1
3     1     31    1
4     1     32    1
5     2     29    1
6     2     3     2
7     3     4     1
8     4     5     1
9     5     6     1
10    5     29    2
11    6     7     1
12    6     8     1
13    6     9     1
14    8     33    1
15    8     34    1
16    8     35    1
17    9     14    1
18    9     10    1
19    10    11    1
20    10    28    1
21    10    12    1
22    12    13    1
23    12    36    1
24    12    37    1
25    13    14    1
26    13    38    1
27    13    39    1
28    14    15    1
29    14    16    1
30    16    17    1
31    16    18    1
32    16    28    1
33    18    19    am
34    18    40    1
35    19    20    2
36    19    21    1
37    21    22    1
38    21    41    1
39    21    42    1
40    22    23    1
41    22    43    1
42    22    44    1
43    23    27    1
44    23    24    2
45    24    25    1
46    24    45    1
47    25    26    1
48    26    27    2
49    26    46    1
50    27    47    1
51    28    48    1
52    28    49    1
@<TRIPOS>SUBSTRUCTURE
1   ZINC001109404798 1     RESIDUE    1   A     ZIN   1
@<TRIPOS>MOLECULE
ZINC000508782983
54	56	1	0	0
SMALL
USER_CHARGES
@<TRIPOS>ATOM
1      C1     -2.6357    1.5240    0.6709 C.3      1 ZINC000508782983   -0.1500
2      C2     -2.7600    0.0474    0.2900 C.3      1 ZINC000508782983   -0.1100
3      C3     -3.6818   -0.0904   -0.9234 C.3      1 ZINC000508782983   -0.1500
4      C4     -1.3769   -0.5086   -0.0546 C.3      1 ZINC000508782983    0.1000
5      N5     -1.4793   -1.9470   -0.3132 N.pl3    1 ZINC000508782983   -0.4400
6      C6     -1.5367   -2.5494   -1.5410 C.2      1 ZINC000508782983   -0.0400
7      C7     -1.6244   -3.8751   -1.3209 C.2      1 ZINC000508782983   -0.0300
8      N8     -1.6206   -4.0766    0.0052 N.2      1 ZINC000508782983   -0.4700
9      C9     -1.5289   -2.9265    0.6150 C.2      1 ZINC000508782983    0.1700
10     C10    -1.4937   -2.7244    2.1080 C.3      1 ZINC000508782983    0.2100
11     N11    -0.1186   -2.8783    2.5893 N.am     1 ZINC000508782983   -0.6900
12     C12     0.1412   -2.8384    3.9112 C.2      1 ZINC000508782983    0.5100
13     O13    -0.7640   -2.6750    4.7027 O.2      1 ZINC000508782983   -0.5100
14     C14     1.5440   -2.9954    4.4022 C.2      1 ZINC000508782983    0.5100
15     O15     2.4620   -3.0451    3.6102 O.2      1 ZINC000508782983   -0.5200
16     N16     1.7894   -3.0818    5.7246 N.am     1 ZINC000508782983   -0.5800
17     C17     0.6862   -3.1825    6.6921 C.3      1 ZINC000508782983    0.0800
18     C18     0.9558   -4.3754    7.6154 C.3      1 ZINC000508782983    0.0400
19     N19     2.2924   -4.2385    8.2094 N.3      1 ZINC000508782983   -0.5400
20     C20     2.5225   -5.2688    9.2309 C.3      1 ZINC000508782983    0.1400
21     C21     3.7887   -4.9543    9.9852 C.2      1 ZINC000508782983    0.2100
22     N22     4.9963   -5.2818    9.6144 N.2      1 ZINC000508782983   -0.4900
23     C23     5.8744   -4.8393   10.5265 C.2      1 ZINC000508782983   -0.0300
24     C24     5.1849   -4.2138   11.4995 C.2      1 ZINC000508782983   -0.0500
25     N25     3.8621   -4.2818   11.1540 N.pl3    1 ZINC000508782983   -0.5600
26     C26     3.3394   -4.2750    7.1796 C.3      1 ZINC000508782983    0.0400
27     C27     3.1677   -3.0841    6.2380 C.3      1 ZINC000508782983    0.1100
28     H28    -3.6211    1.9201    0.9163 H        1 ZINC000508782983    0.0700
29     H29    -1.9790    1.6222    1.5353 H        1 ZINC000508782983    0.0600
30     H30    -2.2185    2.0816   -0.1676 H        1 ZINC000508782983    0.0600
31     H31    -3.1773   -0.5103    1.1284 H        1 ZINC000508782983    0.0800
32     H32    -3.3056    0.5288   -1.7377 H        1 ZINC000508782983    0.0600
33     H33    -3.7095   -1.1324   -1.2422 H        1 ZINC000508782983    0.0600
34     H34    -4.6871    0.2341   -0.6547 H        1 ZINC000508782983    0.0600
35     H35    -0.9943   -0.0061   -0.9429 H        1 ZINC000508782983    0.1000
36     H36    -0.6980   -0.3371    0.7807 H        1 ZINC000508782983    0.0900
37     H37    -1.5160   -2.0563   -2.5017 H        1 ZINC000508782983    0.1800
38     H38    -1.6867   -4.6416   -2.0791 H        1 ZINC000508782983    0.1700
39     H39    -1.8526   -1.7235    2.3477 H        1 ZINC000508782983    0.0900
40     H40    -2.1323   -3.4646    2.5901 H        1 ZINC000508782983    0.1100
41     H41     0.6050   -3.0089    1.9566 H        1 ZINC000508782983    0.4200
42     H42     0.6321   -2.2676    7.2822 H        1 ZINC000508782983    0.0800
43     H43    -0.2535   -3.3353    6.1614 H        1 ZINC000508782983    0.1400
44     H44     0.2068   -4.3993    8.4069 H        1 ZINC000508782983    0.0900
45     H45     0.9066   -5.2995    7.0395 H        1 ZINC000508782983    0.0400
46     H46     1.6817   -5.2873    9.9242 H        1 ZINC000508782983    0.0900
47     H47     2.6184   -6.2423    8.7500 H        1 ZINC000508782983    0.0700
48     H48     6.9466   -4.9629   10.4874 H        1 ZINC000508782983    0.1700
49     H49     5.5967   -3.7449   12.3810 H        1 ZINC000508782983    0.1800
50     H50     3.1164   -3.9195   11.6574 H        1 ZINC000508782983    0.4200
51     H51     4.3190   -4.2261    7.6551 H        1 ZINC000508782983    0.1100
52     H52     3.2570   -5.2005    6.6098 H        1 ZINC000508782983    0.0400
53     H53     3.8691   -3.1694    5.4081 H        1 ZINC000508782983    0.1000
54     H54     3.3509   -2.1576    6.7822 H        1 ZINC000508782983    0.0800
@<TRIPOS>BOND
1     1     2     1
2     1     28    1
3     1     29    1
4     1     30    1
5     2     3     1
6     2     4     1
7     2     31    1
8     3     32    1
9     3     33    1
10    3     34    1
11    4     5     1
12    4     35    1
13    4     36    1
14    5     9     1
15    5     6     1
16    6     7     2
17    6     37    1
18    7     8     1
19    7     38    1
20    8     9     2
21    9     10    1
22    10    11    1
23    10    39    1
24    10    40    1
25    11    12    am
26    11    41    1
27    12    13    2
28    12    14    1
29    14    15    2
30    14    16    am
31    16    27    1
32    16    17    1
33    17    18    1
34    17    42    1
35    17    43    1
36    18    19    1
37    18    44    1
38    18    45    1
39    19    20    1
40    19    26    1
41    20    21    1
42    20    46    1
43    20    47    1
44    21    25    1
45    21    22    2
46    22    23    1
47    23    24    2
48    23    48    1
49    24    25    1
50    24    49    1
51    25    50    1
52    26    27    1
53    26    51    1
54    26    52    1
55    27    53    1
56    27    54    1
@<TRIPOS>SUBSTRUCTURE
1   ZINC000508782983 1     RESIDUE    1   A     ZIN   1
@<TRIPOS>MOLECULE
ZINC000616491533
50	53	1	0	0
SMALL
USER_CHARGES
@<TRIPOS>ATOM
1      C1     -0.2871    1.0970   -0.1383 C.3      1 ZINC000616491533   -0.1700
2      C2     -0.1407   -0.4234   -0.0504 C.3      1 ZINC000616491533    0.1400
3      H3     -1.1251   -0.8876    0.0100 H        1 ZINC000616491533    0.0800
4      C4      0.6135   -0.9510   -1.2910 C.3      1 ZINC000616491533   -0.1200
5      C5      2.0608   -1.0974   -0.7767 C.3      1 ZINC000616491533   -0.0700
6      C6      1.8541   -1.5237    0.6893 C.3      1 ZINC000616491533    0.0900
7      N7      0.6546   -0.7816    1.1339 N.am     1 ZINC000616491533   -0.6100
8      C8      0.3455   -0.4819    2.4110 C.2      1 ZINC000616491533    0.6100
9      O9     -0.6157    0.2221    2.6548 O.2      1 ZINC000616491533   -0.5200
10     C10     1.1724   -1.0074    3.5124 C.2      1 ZINC000616491533   -0.2400
11     C11     1.0496   -0.6934    4.8512 C.2      1 ZINC000616491533    0.0700
12     C12     0.0444    0.2513    5.4577 C.3      1 ZINC000616491533    0.3400
13     F13     0.5407    0.7460    6.6686 F        1 ZINC000616491533   -0.1900
14     F14    -0.1854    1.3150    4.5786 F        1 ZINC000616491533   -0.1600
15     N15     1.9926   -1.3868    5.5147 N.pl3    1 ZINC000616491533   -0.2900
16     C16     2.2114   -1.3546    6.8987 C.ar     1 ZINC000616491533    0.1300
17     C17     1.1361   -1.4197    7.7747 C.ar     1 ZINC000616491533   -0.1000
18     C18     1.3549   -1.3878    9.1380 C.ar     1 ZINC000616491533   -0.1000
19     C19     2.6433   -1.2906    9.6308 C.ar     1 ZINC000616491533   -0.1000
20     C20     3.7162   -1.2255    8.7610 C.ar     1 ZINC000616491533   -0.1000
21     C21     3.5043   -1.2633    7.3967 C.ar     1 ZINC000616491533   -0.0900
22     N22     2.7180   -2.1455    4.5893 N.2      1 ZINC000616491533   -0.2600
23     C23     2.2353   -1.9316    3.3961 C.2      1 ZINC000616491533    0.0700
24     C24     2.7999   -2.1777   -1.5530 C.3      1 ZINC000616491533   -0.1400
25     C25     4.2444   -2.2642   -1.0479 C.3      1 ZINC000616491533    0.0600
26     O26     4.8616   -0.9801   -1.1610 O.3      1 ZINC000616491533   -0.3800
27     C27     4.2397    0.0416   -0.3788 C.3      1 ZINC000616491533    0.0600
28     C28     2.7948    0.2335   -0.8529 C.3      1 ZINC000616491533   -0.1500
29     H29     0.7008    1.5550   -0.1858 H        1 ZINC000616491533    0.0600
30     H30    -0.8514    1.3565   -1.0340 H        1 ZINC000616491533    0.0600
31     H31    -0.8152    1.4626    0.7424 H        1 ZINC000616491533    0.0800
32     H32     0.2153   -1.9165   -1.6030 H        1 ZINC000616491533    0.0800
33     H33     0.5652   -0.2304   -2.1074 H        1 ZINC000616491533    0.0900
34     H34     1.6789   -2.5977    0.7512 H        1 ZINC000616491533    0.0800
35     H35     2.7186   -1.2439    1.2915 H        1 ZINC000616491533    0.0800
36     H36    -0.8904   -0.2795    5.6380 H        1 ZINC000616491533    0.1400
37     H37     0.1296   -1.4949    7.3904 H        1 ZINC000616491533    0.1300
38     H38     0.5189   -1.4384    9.8199 H        1 ZINC000616491533    0.1400
39     H39     2.8118   -1.2650   10.6973 H        1 ZINC000616491533    0.1300
40     H40     4.7213   -1.1497    9.1488 H        1 ZINC000616491533    0.1400
41     H41     4.3427   -1.2124    6.7177 H        1 ZINC000616491533    0.1300
42     H42     2.5901   -2.3781    2.4790 H        1 ZINC000616491533    0.2100
43     H43     2.3041   -3.1369   -1.4038 H        1 ZINC000616491533    0.0800
44     H44     2.7996   -1.9282   -2.6141 H        1 ZINC000616491533    0.0800
45     H45     4.2468   -2.5785   -0.0042 H        1 ZINC000616491533    0.0500
46     H46     4.7969   -2.9876   -1.6476 H        1 ZINC000616491533    0.1000
47     H47     4.2422   -0.2516    0.6710 H        1 ZINC000616491533    0.0500
48     H48     4.7887    0.9757   -0.4976 H        1 ZINC000616491533    0.1000
49     H49     2.7941    0.5911   -1.8826 H        1 ZINC000616491533    0.0800
50     H50     2.2956    0.9616   -0.2137 H        1 ZINC000616491533    0.0800
@<TRIPOS>BOND
1     1     2     1
2     1     29    1
3     1     30    1
4     1     31    1
5     2     3     1
6     2     7     1
7     2     4     1
8     4     5     1
9     4     32    1
10    4     33    1
11    5     28    1
12    5     6     1
13    5     24    1
14    6     7     1
15    6     34    1
16    6     35    1
17    7     8     am
18    8     9     2
19    8     10    1
20    10    23    1
21    10    11    2
22    11    12    1
23    11    15    1
24    12    13    1
25    12    14    1
26    12    36    1
27    15    16    1
28    15    22    1
29    16    21    ar
30    16    17    ar
31    17    18    ar
32    17    37    1
33    18    19    ar
34    18    38    1
35    19    20    ar
36    19    39    1
37    20    21    ar
38    20    40    1
39    21    41    1
40    22    23    2
41    23    42    1
42    24    25    1
43    24    43    1
44    24    44    1
45    25    26    1
46    25    45    1
47    25    46    1
48    26    27    1
49    27    28    1
50    27    47    1
51    27    48    1
52    28    49    1
53    28    50    1
@<TRIPOS>SUBSTRUCTURE
1   ZINC000616491533 1     RESIDUE    1   A     ZIN   1
@<TRIPOS>MOLECULE
ZINC000518937710
42	44	1	0	0
SMALL
USER_CHARGES
@<TRIPOS>ATOM
1      C1      0.0958   -1.3418   -0.2737 C.3      1 ZINC000518937710   -0.1900
2      C2     -0.1868   -0.0639    0.5187 C.3      1 ZINC000518937710    0.1700
3      H3      0.4303    0.7472    0.1323 H        1 ZINC000518937710    0.1100
4      C4     -1.6643    0.3075    0.3775 C.3      1 ZINC000518937710   -0.6600
5      S5     -1.9490    1.9436    1.1074 S.o2     1 ZINC000518937710    2.4000
6      C6     -3.7541    2.0904    1.0056 C.3      1 ZINC000518937710   -0.6600
7      O7     -1.5749    1.8994    2.4776 O.2      1 ZINC000518937710   -0.9200
8      O8     -1.3665    2.9248    0.2605 O.2      1 ZINC000518937710   -0.9300
9      N9      0.1279   -0.2860    1.9322 N.am     1 ZINC000518937710   -0.9600
10     C10     1.2127    0.4657    2.5680 C.3      1 ZINC000518937710    0.0800
11     C11     2.1892    1.2073    1.6529 C.3      1 ZINC000518937710   -0.1800
12     C12     1.1641    1.9920    2.4741 C.3      1 ZINC000518937710   -0.1800
13     S13    -0.7426   -1.3869    2.8112 S.o2     1 ZINC000518937710    2.6900
14     O14    -1.4340   -2.1958    1.8694 O.2      1 ZINC000518937710   -0.9400
15     O15     0.1465   -1.9158    3.7853 O.2      1 ZINC000518937710   -0.9400
16     C16    -1.9745   -0.4905    3.6965 C.ar     1 ZINC000518937710   -0.6400
17     C17    -3.3127   -0.6952    3.4167 C.ar     1 ZINC000518937710   -0.0300
18     C18    -4.2820    0.0063    4.1093 C.ar     1 ZINC000518937710   -0.1300
19     C19    -3.9171    0.9150    5.0850 C.ar     1 ZINC000518937710   -0.0300
20     C20    -2.5779    1.1253    5.3707 C.ar     1 ZINC000518937710    0.0200
21     C21    -1.6016    0.4149    4.6766 C.ar     1 ZINC000518937710    0.1900
22     O22    -0.3744    0.7970    5.1362 O.3      1 ZINC000518937710   -0.2800
23     C23    -0.5932    2.0406    5.8282 C.3      1 ZINC000518937710    0.5700
24     F24     0.2671    2.1503    6.9259 F        1 ZINC000518937710   -0.1200
25     F25    -0.4201    3.1236    4.9596 F        1 ZINC000518937710   -0.1400
26     O26    -1.9625    1.9492    6.2684 O.3      1 ZINC000518937710   -0.2900
27     H27    -0.4942   -2.1615    0.1363 H        1 ZINC000518937710    0.1000
28     H28    -0.1727   -1.1881   -1.3188 H        1 ZINC000518937710    0.0800
29     H29     1.1557   -1.5862   -0.2030 H        1 ZINC000518937710    0.0700
30     H30    -1.9343    0.3288   -0.6783 H        1 ZINC000518937710    0.1600
31     H31    -2.2759   -0.4322    0.8941 H        1 ZINC000518937710    0.1400
32     H32    -4.2165    1.3364    1.6426 H        1 ZINC000518937710    0.1300
33     H33    -4.0573    3.0830    1.3389 H        1 ZINC000518937710    0.1300
34     H34    -4.0733    1.9402   -0.0257 H        1 ZINC000518937710    0.1300
35     H35     1.6126    0.0303    3.4838 H        1 ZINC000518937710    0.1500
36     H36     3.2318    1.2598    1.9665 H        1 ZINC000518937710    0.1100
37     H37     2.0244    1.1359    0.5778 H        1 ZINC000518937710    0.1000
38     H38     0.3250    2.4369    1.9393 H        1 ZINC000518937710    0.1000
39     H39     1.5324    2.5608    3.3280 H        1 ZINC000518937710    0.1000
40     H40    -3.6016   -1.4044    2.6551 H        1 ZINC000518937710    0.1600
41     H41    -5.3264   -0.1558    3.8874 H        1 ZINC000518937710    0.1600
42     H42    -4.6765    1.4616    5.6245 H        1 ZINC000518937710    0.1500
@<TRIPOS>BOND
1     1     2     1
2     1     27    1
3     1     28    1
4     1     29    1
5     2     3     1
6     2     4     1
7     2     9     1
8     4     5     1
9     4     30    1
10    4     31    1
11    5     6     1
12    5     7     2
13    5     8     2
14    6     32    1
15    6     33    1
16    6     34    1
17    9     10    1
18    9     13    am
19    10    12    1
20    10    11    1
21    10    35    1
22    11    12    1
23    11    36    1
24    11    37    1
25    12    38    1
26    12    39    1
27    13    14    2
28    13    15    2
29    13    16    1
30    16    21    ar
31    16    17    ar
32    17    18    ar
33    17    40    1
34    18    19    ar
35    18    41    1
36    19    20    ar
37    19    42    1
38    20    26    1
39    20    21    ar
40    21    22    1
41    22    23    1
42    23    24    1
43    23    25    1
44    23    26    1
@<TRIPOS>SUBSTRUCTURE
1   ZINC000518937710 1     RESIDUE    1   A     ZIN   1
@<TRIPOS>MOLECULE
ZINC001109848453
40	43	1	0	0
SMALL
USER_CHARGES
@<TRIPOS>ATOM
1      O1      0.0021   -0.0041    0.0020 O.2      1 ZINC001109848453   -0.5000
2      C2     -0.0144    1.2086    0.0087 C.2      1 ZINC001109848453    0.5000
3      C3      1.2803    1.9798    0.0005 C.3      1 ZINC001109848453    0.1100
4      N4      2.4066    1.0431   -0.0153 N.pl3    1 ZINC001109848453   -0.3700
5      C5      3.4151    1.0106   -0.9035 C.2      1 ZINC001109848453    0.2600
6      N6      4.2160    0.0303   -0.5728 N.2      1 ZINC001109848453   -0.5400
7      C7      3.7539   -0.5830    0.5161 C.2      1 ZINC001109848453    0.2000
8      N8      2.6504    0.0044    0.8980 N.2      1 ZINC001109848453   -0.2900
9      N9     -1.1906    1.8666    0.0178 N.am     1 ZINC001109848453   -0.7300
10     C10    -2.4492    1.1169    0.0197 C.3      1 ZINC001109848453    0.1700
11     H11    -2.3335    0.2109   -0.5752 H        1 ZINC001109848453    0.1000
12     C12    -3.5593    1.9824   -0.5799 C.3      1 ZINC001109848453    0.1200
13     N13    -3.1550    2.4419   -1.9110 N.pl3    1 ZINC001109848453   -0.6800
14     C14    -4.0040    3.2458   -2.6536 C.2      1 ZINC001109848453    0.4900
15     N15    -5.1754    3.6058   -2.1659 N.2      1 ZINC001109848453   -0.5300
16     C16    -6.0054    4.3808   -2.8686 C.2      1 ZINC001109848453    0.1400
17     C17    -5.6806    4.8244   -4.1005 C.2      1 ZINC001109848453   -0.0500
18     N18    -4.4787    4.4818   -4.6549 N.pl3    1 ZINC001109848453   -0.1800
19     N19    -3.9020    4.7401   -5.7747 N.2      1 ZINC001109848453   -0.1000
20     N20    -2.7510    4.1628   -5.8032 N.2      1 ZINC001109848453   -0.0400
21     N21    -2.5538    3.5169   -4.7037 N.2      1 ZINC001109848453   -0.2600
22     C22    -3.6201    3.6932   -3.9397 C.2      1 ZINC001109848453    0.1000
23     C23    -2.8163    0.7401    1.4565 C.3      1 ZINC001109848453   -0.1800
24     C24    -3.1458   -0.7269    1.7399 C.3      1 ZINC001109848453   -0.1700
25     C25    -1.8263   -0.1300    2.2335 C.3      1 ZINC001109848453   -0.1700
26     H26     1.3211    2.6120   -0.8866 H        1 ZINC001109848453    0.1300
27     H27     1.3381    2.6024    0.8933 H        1 ZINC001109848453    0.1200
28     H28     3.5419    1.6770   -1.7439 H        1 ZINC001109848453    0.2200
29     H29     4.2181   -1.4261    1.0061 H        1 ZINC001109848453    0.2200
30     H30    -1.2037    2.8365    0.0232 H        1 ZINC001109848453    0.4000
31     H31    -4.4742    1.3955   -0.6605 H        1 ZINC001109848453    0.1000
32     H32    -3.7359    2.8441    0.0638 H        1 ZINC001109848453    0.0900
33     H33    -2.2928    2.1831   -2.2723 H        1 ZINC001109848453    0.4200
34     H34    -6.9578    4.6583   -2.4415 H        1 ZINC001109848453    0.2000
35     H35    -6.3697    5.4496   -4.6488 H        1 ZINC001109848453    0.1900
36     H36    -3.3671    1.4970    2.0149 H        1 ZINC001109848453    0.1100
37     H37    -3.9137   -0.9354    2.4848 H        1 ZINC001109848453    0.1000
38     H38    -3.1011   -1.4235    0.9028 H        1 ZINC001109848453    0.1000
39     H39    -0.9135   -0.4340    1.7211 H        1 ZINC001109848453    0.1200
40     H40    -1.7261    0.0541    3.3031 H        1 ZINC001109848453    0.0900
@<TRIPOS>BOND
1     1     2     2
2     2     3     1
3     2     9     am
4     3     4     1
5     3     26    1
6     3     27    1
7     4     8     1
8     4     5     1
9     5     6     2
10    5     28    1
11    6     7     1
12    7     8     2
13    7     29    1
14    9     10    1
15    9     30    1
16    10    11    1
17    10    12    1
18    10    23    1
19    12    13    1
20    12    31    1
21    12    32    1
22    13    14    1
23    13    33    1
24    14    22    1
25    14    15    2
26    15    16    1
27    16    17    2
28    16    34    1
29    17    18    1
30    17    35    1
31    18    22    1
32    18    19    1
33    19    20    2
34    20    21    1
35    21    22    2
36    23    25    1
37    23    24    1
38    23    36    1
39    24    25    1
40    24    37    1
41    24    38    1
42    25    39    1
43    25    40    1
@<TRIPOS>SUBSTRUCTURE
1   ZINC001109848453 1     RESIDUE    1   A     ZIN   1
@<TRIPOS>MOLECULE
ZINC000623581528
44	47	1	0	0
SMALL
USER_CHARGES
@<TRIPOS>ATOM
1      C1     -0.0178    1.4608    0.0101 C.3      1 ZINC000623581528    0.1000
2      N2      0.0021   -0.0041    0.0020 N.am     1 ZINC000623581528   -0.5500
3      C3      0.0084   -0.7951   -1.0892 C.2      1 ZINC000623581528    0.6300
4      O4     -0.0016   -0.4035   -2.2403 O.2      1 ZINC000623581528   -0.4800
5      O5      0.0274   -2.0821   -0.7084 O.3      1 ZINC000623581528   -0.2300
6      C6      0.0338   -2.1459    0.6456 C.ar     1 ZINC000623581528    0.0400
7      C7      0.0518   -3.2026    1.5419 C.ar     1 ZINC000623581528   -0.0800
8      C8      0.0540   -2.9535    2.9009 C.ar     1 ZINC000623581528   -0.0900
9      C9      0.0378   -1.6528    3.3725 C.ar     1 ZINC000623581528   -0.0900
10     C10     0.0403   -1.3915    4.8567 C.3      1 ZINC000623581528    0.1800
11     N11     1.4222   -1.2876    5.3319 N.am     1 ZINC000623581528   -0.7400
12     C12     1.6706   -1.0545    6.6359 C.2      1 ZINC000623581528    0.7100
13     O13     0.7479   -0.9304    7.4179 O.2      1 ZINC000623581528   -0.5800
14     N14     2.9419   -0.9589    7.0730 N.am     1 ZINC000623581528   -0.7300
15     C15     3.2120   -0.7055    8.4905 C.3      1 ZINC000623581528    0.2000
16     H16     2.4432   -0.0576    8.9114 H        1 ZINC000623581528    0.1000
17     C17     4.6057   -0.0653    8.6640 C.3      1 ZINC000623581528   -0.1300
18     C18     5.5088   -1.2953    8.8959 C.3      1 ZINC000623581528   -0.0800
19     C19     4.5979   -2.3498    9.4872 C.ar     1 ZINC000623581528   -0.1000
20     C20     4.9006   -3.5133   10.1744 C.ar     1 ZINC000623581528   -0.0800
21     C21     3.8888   -4.3364   10.6284 C.ar     1 ZINC000623581528   -0.1400
22     C22     2.5668   -3.9979   10.3957 C.ar     1 ZINC000623581528    0.0900
23     F23     1.5746   -4.8006   10.8389 F        1 ZINC000623581528   -0.1400
24     C24     2.2634   -2.8357    9.7087 C.ar     1 ZINC000623581528   -0.1200
25     C25     3.2752   -2.0106    9.2546 C.ar     1 ZINC000623581528   -0.0900
26     C26     0.0197   -0.5927    2.4864 C.ar     1 ZINC000623581528   -0.0800
27     C27     0.0240   -0.8347    1.1220 C.ar     1 ZINC000623581528    0.0700
28     H28     1.0048    1.8381    0.0023 H        1 ZINC000623581528    0.0800
29     H29    -0.5450    1.8219   -0.8730 H        1 ZINC000623581528    0.0900
30     H30    -0.5280    1.8123    0.9069 H        1 ZINC000623581528    0.0900
31     H31     0.0638   -4.2195    1.1786 H        1 ZINC000623581528    0.1500
32     H32     0.0680   -3.7779    3.5984 H        1 ZINC000623581528    0.1500
33     H33    -0.4858   -0.4593    5.0624 H        1 ZINC000623581528    0.0800
34     H34    -0.4600   -2.2122    5.3709 H        1 ZINC000623581528    0.0800
35     H35     2.1583   -1.3866    4.7080 H        1 ZINC000623581528    0.4000
36     H36     3.6781   -1.0578    6.4492 H        1 ZINC000623581528    0.4000
37     H37     4.9021    0.4682    7.7609 H        1 ZINC000623581528    0.0900
38     H38     4.6229    0.5967    9.5297 H        1 ZINC000623581528    0.0900
39     H39     5.9253   -1.6424    7.9503 H        1 ZINC000623581528    0.0800
40     H40     6.3084   -1.0509    9.5952 H        1 ZINC000623581528    0.0800
41     H41     5.9317   -3.7779   10.3563 H        1 ZINC000623581528    0.1300
42     H42     4.1286   -5.2430   11.1640 H        1 ZINC000623581528    0.1400
43     H43     1.2322   -2.5713    9.5269 H        1 ZINC000623581528    0.1400
44     H44     0.0071    0.4219    2.8563 H        1 ZINC000623581528    0.1400
@<TRIPOS>BOND
1     1     2     1
2     1     28    1
3     1     29    1
4     1     30    1
5     2     27    1
6     2     3     am
7     3     4     2
8     3     5     1
9     5     6     1
10    6     27    ar
11    6     7     ar
12    7     8     ar
13    7     31    1
14    8     9     ar
15    8     32    1
16    9     10    1
17    9     26    ar
18    10    11    1
19    10    33    1
20    10    34    1
21    11    12    am
22    11    35    1
23    12    13    2
24    12    14    am
25    14    15    1
26    14    36    1
27    15    16    1
28    15    25    1
29    15    17    1
30    17    18    1
31    17    37    1
32    17    38    1
33    18    19    1
34    18    39    1
35    18    40    1
36    19    25    ar
37    19    20    ar
38    20    21    ar
39    20    41    1
40    21    22    ar
41    21    42    1
42    22    23    1
43    22    24    ar
44    24    25    ar
45    24    43    1
46    26    27    ar
47    26    44    1
@<TRIPOS>SUBSTRUCTURE
1   ZINC000623581528 1     RESIDUE    1   A     ZIN   1
@<TRIPOS>MOLECULE
ZINC000345028113
40	41	1	0	0
SMALL
USER_CHARGES
@<TRIPOS>ATOM
1      C1     -0.0187    1.5258    0.0104 C.3      1 ZINC000345028113   -0.1700
2      C2      0.0021   -0.0041    0.0020 C.3      1 ZINC000345028113    0.1400
3      H3      0.5123   -0.3555   -0.8948 H        1 ZINC000345028113    0.1100
4      C4     -1.4356   -0.5344    0.0127 C.3      1 ZINC000345028113   -0.0700
5      H5     -1.4236   -1.6234   -0.0317 H        1 ZINC000345028113    0.0900
6      C6     -2.1956    0.0197   -1.1941 C.3      1 ZINC000345028113   -0.1400
7      S7     -2.2469    0.0038    1.5473 S.3      1 ZINC000345028113   -0.2400
8      C8     -1.1059   -0.6066    2.8234 C.3      1 ZINC000345028113   -0.1100
9      C9      0.2984   -0.0689    2.5282 C.3      1 ZINC000345028113    0.1000
10     N10     0.7102   -0.4889    1.1878 N.am     1 ZINC000345028113   -0.6100
11     C11     1.7526   -1.3310    1.0439 C.2      1 ZINC000345028113    0.5200
12     O12     2.0992   -1.6831   -0.0637 O.2      1 ZINC000345028113   -0.5300
13     C13     2.4874   -1.8351    2.2592 C.3      1 ZINC000345028113   -0.1400
14     C14     3.6183   -2.7678    1.8210 C.3      1 ZINC000345028113    0.0700
15     O15     4.3151   -3.2458    2.9734 O.3      1 ZINC000345028113   -0.3000
16     C16     5.3570   -4.0924    2.7577 C.ar     1 ZINC000345028113    0.1300
17     C17     5.7041   -4.4501    1.4640 C.ar     1 ZINC000345028113   -0.1700
18     C18     6.7636   -5.3103    1.2460 C.ar     1 ZINC000345028113   -0.1100
19     C19     7.4786   -5.8151    2.3184 C.ar     1 ZINC000345028113    0.0800
20     F20     8.5143   -6.6555    2.1033 F        1 ZINC000345028113   -0.1300
21     C21     7.1337   -5.4592    3.6115 C.ar     1 ZINC000345028113   -0.1100
22     C22     6.0779   -4.5949    3.8325 C.ar     1 ZINC000345028113   -0.0400
23     Cl23    5.6454   -4.1486    5.4534 Cl       1 ZINC000345028113   -0.0400
24     H24     1.0039    1.9031    0.0027 H        1 ZINC000345028113    0.0600
25     H25    -0.5459    1.8868   -0.8726 H        1 ZINC000345028113    0.0800
26     H26    -0.5289    1.8773    0.9072 H        1 ZINC000345028113    0.0800
27     H27    -1.6997   -0.2961   -2.1120 H        1 ZINC000345028113    0.0800
28     H28    -3.2178   -0.3587   -1.1847 H        1 ZINC000345028113    0.0700
29     H29    -2.2106    1.1085   -1.1453 H        1 ZINC000345028113    0.0700
30     H30    -1.4324   -0.2571    3.8029 H        1 ZINC000345028113    0.1200
31     H31    -1.0904   -1.6964    2.8086 H        1 ZINC000345028113    0.0900
32     H32     0.2891    1.0197    2.5809 H        1 ZINC000345028113    0.0900
33     H33     1.0001   -0.4623    3.2637 H        1 ZINC000345028113    0.1000
34     H34     2.9049   -0.9906    2.8076 H        1 ZINC000345028113    0.1100
35     H35     1.7958   -2.3796    2.9021 H        1 ZINC000345028113    0.1100
36     H36     3.2008   -3.6123    1.2726 H        1 ZINC000345028113    0.0800
37     H37     4.3099   -2.2233    1.1781 H        1 ZINC000345028113    0.0800
38     H38     5.1465   -4.0570    0.6268 H        1 ZINC000345028113    0.1500
39     H39     7.0337   -5.5892    0.2382 H        1 ZINC000345028113    0.1500
40     H40     7.6923   -5.8540    4.4473 H        1 ZINC000345028113    0.1500
@<TRIPOS>BOND
1     1     2     1
2     1     24    1
3     1     25    1
4     1     26    1
5     2     3     1
6     2     10    1
7     2     4     1
8     4     5     1
9     4     6     1
10    4     7     1
11    6     27    1
12    6     28    1
13    6     29    1
14    7     8     1
15    8     9     1
16    8     30    1
17    8     31    1
18    9     10    1
19    9     32    1
20    9     33    1
21    10    11    am
22    11    12    2
23    11    13    1
24    13    14    1
25    13    34    1
26    13    35    1
27    14    15    1
28    14    36    1
29    14    37    1
30    15    16    1
31    16    22    ar
32    16    17    ar
33    17    18    ar
34    17    38    1
35    18    19    ar
36    18    39    1
37    19    20    1
38    19    21    ar
39    21    22    ar
40    21    40    1
41    22    23    1
@<TRIPOS>SUBSTRUCTURE
1   ZINC000345028113 1     RESIDUE    1   A     ZIN   1
@<TRIPOS>MOLECULE
ZINC001009984555
46	47	1	0	0
SMALL
USER_CHARGES
@<TRIPOS>ATOM
1      C1      1.3763    2.1626   -0.4121 C.3      1 ZINC001009984555   -0.1400
2      S2      1.2396    0.3542   -0.4525 S.3      1 ZINC001009984555   -0.1800
3      C3      1.8551   -0.1381    1.1813 C.3      1 ZINC001009984555   -0.1300
4      C4      1.8044   -1.6391    1.3059 C.2      1 ZINC001009984555    0.5500
5      O5      1.3935   -2.3106    0.3833 O.2      1 ZINC001009984555   -0.5100
6      N6      2.2157   -2.2353    2.4425 N.am     1 ZINC001009984555   -0.6100
7      C7      2.7295   -1.5431    3.6384 C.3      1 ZINC001009984555    0.1000
8      C8      2.4698   -2.5257    4.8075 C.3      1 ZINC001009984555   -0.1100
9      H9      1.4368   -2.4619    5.1494 H        1 ZINC001009984555    0.1000
10     C10     3.4428   -2.2746    5.9613 C.3      1 ZINC001009984555    0.1300
11     N11     3.1702   -0.9624    6.5531 N.am     1 ZINC001009984555   -0.7300
12     C12     3.9089   -0.5252    7.5922 C.2      1 ZINC001009984555    0.5600
13     O13     4.8011   -1.2197    8.0384 O.2      1 ZINC001009984555   -0.5200
14     C14     3.6339    0.7991    8.1894 C.ar     1 ZINC001009984555   -0.1200
15     C15     2.5311    1.5427    7.7669 C.ar     1 ZINC001009984555   -0.0900
16     C16     2.2789    2.7781    8.3274 C.ar     1 ZINC001009984555   -0.1000
17     C17     3.1162    3.2813    9.3063 C.ar     1 ZINC001009984555   -0.1200
18     C18     4.2134    2.5489    9.7312 C.ar     1 ZINC001009984555    0.0900
19     F19     5.0272    3.0466   10.6879 F        1 ZINC001009984555   -0.1300
20     C20     4.4728    1.3079    9.1819 C.ar     1 ZINC001009984555   -0.0500
21     C21     5.6658    0.5116    9.6441 C.3      1 ZINC001009984555   -0.1200
22     C22     2.7485   -3.8944    4.1318 C.3      1 ZINC001009984555   -0.1200
23     C23     2.2202   -3.6832    2.6974 C.3      1 ZINC001009984555    0.1400
24     H24     2.8784   -4.1782    1.9833 H        1 ZINC001009984555    0.0800
25     C25     0.8033   -4.2476    2.5764 C.3      1 ZINC001009984555   -0.1700
26     H26     2.4171    2.4448   -0.2541 H        1 ZINC001009984555    0.0800
27     H27     1.0279    2.5745   -1.3592 H        1 ZINC001009984555    0.1100
28     H28     0.7659    2.5550    0.4012 H        1 ZINC001009984555    0.0800
29     H29     2.8840    0.2017    1.2995 H        1 ZINC001009984555    0.1100
30     H30     1.2327    0.3118    1.9548 H        1 ZINC001009984555    0.1100
31     H31     3.7973   -1.3498    3.5354 H        1 ZINC001009984555    0.0800
32     H32     2.1881   -0.6108    3.7991 H        1 ZINC001009984555    0.0800
33     H33     3.3157   -3.0482    6.7187 H        1 ZINC001009984555    0.0800
34     H34     4.4657   -2.2984    5.5857 H        1 ZINC001009984555    0.0800
35     H35     2.4582   -0.4082    6.1970 H        1 ZINC001009984555    0.4000
36     H36     1.8763    1.1520    7.0020 H        1 ZINC001009984555    0.1300
37     H37     1.4255    3.3537    8.0005 H        1 ZINC001009984555    0.1400
38     H38     2.9145    4.2492    9.7411 H        1 ZINC001009984555    0.1400
39     H39     5.3511   -0.2096   10.3984 H        1 ZINC001009984555    0.0800
40     H40     6.1010   -0.0165    8.7957 H        1 ZINC001009984555    0.1000
41     H41     6.4082    1.1849   10.0726 H        1 ZINC001009984555    0.0600
42     H42     3.8168   -4.1108    4.1253 H        1 ZINC001009984555    0.0900
43     H43     2.1957   -4.6904    4.6307 H        1 ZINC001009984555    0.0900
44     H44     0.1470   -3.7358    3.2804 H        1 ZINC001009984555    0.0600
45     H45     0.4369   -4.0950    1.5613 H        1 ZINC001009984555    0.0700
46     H46     0.8165   -5.3140    2.8015 H        1 ZINC001009984555    0.0700
@<TRIPOS>BOND
1     1     2     1
2     1     26    1
3     1     27    1
4     1     28    1
5     2     3     1
6     3     4     1
7     3     29    1
8     3     30    1
9     4     5     2
10    4     6     am
11    6     23    1
12    6     7     1
13    7     8     1
14    7     31    1
15    7     32    1
16    8     9     1
17    8     10    1
18    8     22    1
19    10    11    1
20    10    33    1
21    10    34    1
22    11    12    am
23    11    35    1
24    12    13    2
25    12    14    1
26    14    20    ar
27    14    15    ar
28    15    16    ar
29    15    36    1
30    16    17    ar
31    16    37    1
32    17    18    ar
33    17    38    1
34    18    19    1
35    18    20    ar
36    20    21    1
37    21    39    1
38    21    40    1
39    21    41    1
40    22    23    1
41    22    42    1
42    22    43    1
43    23    24    1
44    23    25    1
45    25    44    1
46    25    45    1
47    25    46    1
@<TRIPOS>SUBSTRUCTURE
1   ZINC001009984555 1     RESIDUE    1   A     ZIN   1
@<TRIPOS>MOLECULE
ZINC000434204837
51	54	1	0	0
SMALL
USER_CHARGES
@<TRIPOS>ATOM
1      C1     -0.0184    1.5028    0.0103 C.3      1 ZINC000434204837   -0.1300
2      C2      0.0021   -0.0041    0.0020 C.ar     1 ZINC000434204837   -0.0700
3      C3      0.0057   -0.6885   -1.1987 C.ar     1 ZINC000434204837   -0.1200
4      C4      0.0245   -2.0710   -1.2063 C.ar     1 ZINC000434204837   -0.1100
5      C5      0.0400   -2.7685   -0.0132 C.ar     1 ZINC000434204837   -0.1300
6      C6      0.0373   -2.0838    1.1879 C.ar     1 ZINC000434204837   -0.0900
7      C7      0.0229   -0.7017    1.1955 C.ar     1 ZINC000434204837   -0.1000
8      C8      0.0199    0.0446    2.5047 C.3      1 ZINC000434204837    0.0100
9      C9     -1.3977    0.3862    2.8850 C.2      1 ZINC000434204837    0.2000
10     N10    -2.2110   -0.3470    3.6065 N.2      1 ZINC000434204837   -0.4600
11     C11    -3.3568    0.3529    3.6843 C.2      1 ZINC000434204837    0.1700
12     C12    -4.6095   -0.0646    4.4105 C.3      1 ZINC000434204837   -0.0300
13     S13    -4.5461    0.5358    6.1169 S.3      1 ZINC000434204837    0.0900
14     C14    -6.0868   -0.0762    6.7140 C.2      1 ZINC000434204837    0.2100
15     N15    -6.9689   -0.7738    6.0312 N.2      1 ZINC000434204837   -0.3300
16     N16    -7.9820   -1.0608    6.7662 N.2      1 ZINC000434204837   -0.0200
17     N17    -7.8285   -0.5782    7.9515 N.2      1 ZINC000434204837   -0.0700
18     N18    -6.5852    0.0779    7.9666 N.pl3    1 ZINC000434204837   -0.3100
19     C19    -5.9915    0.7533    9.0424 C.ar     1 ZINC000434204837    0.1100
20     C20    -4.6133    0.7236    9.2070 C.ar     1 ZINC000434204837   -0.1100
21     C21    -4.0312    1.3902   10.2675 C.ar     1 ZINC000434204837   -0.0900
22     C22    -4.8199    2.0863   11.1650 C.ar     1 ZINC000434204837   -0.0600
23     C23    -4.1817    2.8126   12.3210 C.3      1 ZINC000434204837   -0.0600
24     C24    -4.5106    4.3041   12.2304 C.3      1 ZINC000434204837   -0.1500
25     C25    -4.7220    2.2503   13.6374 C.3      1 ZINC000434204837   -0.1500
26     C26    -6.1929    2.1177   11.0037 C.ar     1 ZINC000434204837   -0.1000
27     C27    -6.7801    1.4577    9.9420 C.ar     1 ZINC000434204837   -0.0900
28     N28    -3.1851    1.4556    3.0185 N.2      1 ZINC000434204837   -0.3600
29     O29    -2.0644    1.4968    2.5562 O.3      1 ZINC000434204837    0.0900
30     H30     1.0042    1.8801    0.0026 H        1 ZINC000434204837    0.0800
31     H31    -0.5455    1.8639   -0.8728 H        1 ZINC000434204837    0.0700
32     H32    -0.5286    1.8543    0.9071 H        1 ZINC000434204837    0.0700
33     H33    -0.0064   -0.1435   -2.1310 H        1 ZINC000434204837    0.1300
34     H34     0.0266   -2.6058   -2.1446 H        1 ZINC000434204837    0.1200
35     H35     0.0540   -3.8484   -0.0191 H        1 ZINC000434204837    0.1300
36     H36     0.0491   -2.6288    2.1202 H        1 ZINC000434204837    0.1300
37     H37     0.4637   -0.5800    3.2800 H        1 ZINC000434204837    0.1200
38     H38     0.5994    0.9620    2.4013 H        1 ZINC000434204837    0.1200
39     H39    -5.4791    0.3593    3.9083 H        1 ZINC000434204837    0.1300
40     H40    -4.6841   -1.1520    4.4105 H        1 ZINC000434204837    0.1400
41     H41    -3.9969    0.1795    8.5067 H        1 ZINC000434204837    0.1400
42     H42    -2.9592    1.3675   10.3960 H        1 ZINC000434204837    0.1400
43     H43    -3.1010    2.6759   12.2839 H        1 ZINC000434204837    0.0800
44     H44    -5.5914    4.4407   12.2675 H        1 ZINC000434204837    0.0600
45     H45    -4.0490    4.8294   13.0665 H        1 ZINC000434204837    0.0600
46     H46    -4.1257    4.7047   11.2925 H        1 ZINC000434204837    0.0600
47     H47    -4.4877    1.1877   13.7020 H        1 ZINC000434204837    0.0600
48     H48    -4.2604    2.7756   14.4735 H        1 ZINC000434204837    0.0600
49     H49    -5.8027    2.3870   13.6745 H        1 ZINC000434204837    0.0600
50     H50    -6.8063    2.6619   11.7066 H        1 ZINC000434204837    0.1400
51     H51    -7.8525    1.4826    9.8165 H        1 ZINC000434204837    0.1400
@<TRIPOS>BOND
1     1     2     1
2     1     30    1
3     1     31    1
4     1     32    1
5     2     7     ar
6     2     3     ar
7     3     4     ar
8     3     33    1
9     4     5     ar
10    4     34    1
11    5     6     ar
12    5     35    1
13    6     7     ar
14    6     36    1
15    7     8     1
16    8     9     1
17    8     37    1
18    8     38    1
19    9     29    1
20    9     10    2
21    10    11    1
22    11    12    1
23    11    28    2
24    12    13    1
25    12    39    1
26    12    40    1
27    13    14    1
28    14    18    1
29    14    15    2
30    15    16    1
31    16    17    2
32    17    18    1
33    18    19    1
34    19    27    ar
35    19    20    ar
36    20    21    ar
37    20    41    1
38    21    22    ar
39    21    42    1
40    22    23    1
41    22    26    ar
42    23    24    1
43    23    25    1
44    23    43    1
45    24    44    1
46    24    45    1
47    24    46    1
48    25    47    1
49    25    48    1
50    25    49    1
51    26    27    ar
52    26    50    1
53    27    51    1
54    28    29    1
@<TRIPOS>SUBSTRUCTURE
1   ZINC000434204837 1     RESIDUE    1   A     ZIN   1
@<TRIPOS>MOLECULE
ZINC001079355651
45	47	1	0	0
SMALL
USER_CHARGES
@<TRIPOS>ATOM
1      C1     -0.0187    1.5258    0.0104 C.3      1 ZINC001079355651   -0.1500
2      C2      0.0021   -0.0041    0.0020 C.3      1 ZINC001079355651   -0.1000
3      H3      0.4989   -0.3704   -0.8963 H        1 ZINC001079355651    0.0900
4      C4     -1.4357   -0.5603    0.0842 C.3      1 ZINC001079355651    0.0300
5      N5     -1.3218   -1.7667    0.9436 N.3      1 ZINC001079355651   -0.5100
6      C6     -2.6232   -2.1251    1.5230 C.3      1 ZINC001079355651    0.1600
7      C7     -2.4346   -3.1656    2.5470 C.1      1 ZINC001079355651   -0.1400
8      C8     -2.2842   -3.9954    3.3637 C.1      1 ZINC001079355651   -0.1300
9      C9     -2.1008   -5.0076    4.3599 C.ar     1 ZINC001079355651    0.0300
10     C10    -0.8218   -5.4880    4.6431 C.ar     1 ZINC001079355651   -0.0900
11     C11    -0.6510   -6.4636    5.6041 C.ar     1 ZINC001079355651   -0.1000
12     C12    -1.7442   -6.9656    6.2865 C.ar     1 ZINC001079355651   -0.1000
13     C13    -3.0165   -6.4938    6.0102 C.ar     1 ZINC001079355651   -0.0300
14     Cl14   -4.3827   -7.1305    6.8715 Cl       1 ZINC001079355651   -0.0600
15     C15    -3.1997   -5.5135    5.0553 C.ar     1 ZINC001079355651   -0.0900
16     C16    -0.3583   -1.3707    2.0027 C.3      1 ZINC001079355651    0.0200
17     C17     0.7132   -0.5372    1.2628 C.3      1 ZINC001079355651    0.1500
18     H18     1.0468    0.2911    1.8879 H        1 ZINC001079355651    0.1000
19     N19     1.8501   -1.3837    0.8922 N.am     1 ZINC001079355651   -0.7100
20     C20     2.8533   -1.5865    1.7691 C.2      1 ZINC001079355651    0.5600
21     O21     2.8149   -1.0672    2.8670 O.2      1 ZINC001079355651   -0.5300
22     C22     4.0029   -2.4426    1.3943 C.ar     1 ZINC001079355651   -0.0900
23     C23     4.0696   -3.0448    0.1343 C.ar     1 ZINC001079355651   -0.1400
24     C24     5.1599   -3.8354   -0.1733 C.ar     1 ZINC001079355651    0.1000
25     N25     6.1273   -4.0246    0.7019 N.ar     1 ZINC001079355651   -0.4700
26     C26     6.1036   -3.4757    1.9001 C.ar     1 ZINC001079355651    0.1000
27     C27     5.0540   -2.6660    2.2888 C.ar     1 ZINC001079355651   -0.1200
28     H28     1.0039    1.9031    0.0027 H        1 ZINC001079355651    0.0600
29     H29    -0.5459    1.8868   -0.8726 H        1 ZINC001079355651    0.0700
30     H30    -0.5289    1.8773    0.9072 H        1 ZINC001079355651    0.0600
31     H31    -2.1008    0.1716    0.5426 H        1 ZINC001079355651    0.0600
32     H32    -1.7951   -0.8329   -0.9081 H        1 ZINC001079355651    0.0900
33     H33    -3.0729   -1.2433    1.9795 H        1 ZINC001079355651    0.0700
34     H34    -3.2789   -2.5023    0.7382 H        1 ZINC001079355651    0.1100
35     H35     0.0329   -5.0974    4.1109 H        1 ZINC001079355651    0.1300
36     H36     0.3386   -6.8362    5.8236 H        1 ZINC001079355651    0.1400
37     H37    -1.6051   -7.7291    7.0376 H        1 ZINC001079355651    0.1400
38     H38    -4.1922   -5.1459    4.8404 H        1 ZINC001079355651    0.1400
39     H39    -0.8548   -0.7657    2.7614 H        1 ZINC001079355651    0.0600
40     H40     0.0935   -2.2536    2.4550 H        1 ZINC001079355651    0.0900
41     H41     1.8807   -1.7983    0.0158 H        1 ZINC001079355651    0.4000
42     H42     3.2805   -2.8945   -0.5876 H        1 ZINC001079355651    0.1400
43     H43     5.2204   -4.3052   -1.1439 H        1 ZINC001079355651    0.1600
44     H44     6.9179   -3.6582    2.5857 H        1 ZINC001079355651    0.1700
45     H45     5.0412   -2.2196    3.2722 H        1 ZINC001079355651    0.1500
@<TRIPOS>BOND
1     1     2     1
2     1     28    1
3     1     29    1
4     1     30    1
5     2     3     1
6     2     17    1
7     2     4     1
8     4     5     1
9     4     31    1
10    4     32    1
11    5     6     1
12    5     16    1
13    6     7     1
14    6     33    1
15    6     34    1
16    7     8     3
17    8     9     1
18    9     15    ar
19    9     10    ar
20    10    11    ar
21    10    35    1
22    11    12    ar
23    11    36    1
24    12    13    ar
25    12    37    1
26    13    14    1
27    13    15    ar
28    15    38    1
29    16    17    1
30    16    39    1
31    16    40    1
32    17    18    1
33    17    19    1
34    19    20    am
35    19    41    1
36    20    21    2
37    20    22    1
38    22    27    ar
39    22    23    ar
40    23    24    ar
41    23    42    1
42    24    25    ar
43    24    43    1
44    25    26    ar
45    26    27    ar
46    26    44    1
47    27    45    1
@<TRIPOS>SUBSTRUCTURE
1   ZINC001079355651 1     RESIDUE    1   A     ZIN   1
@<TRIPOS>MOLECULE
ZINC000463741321
53	55	1	0	0
SMALL
USER_CHARGES
@<TRIPOS>ATOM
1      C1     -0.0187    1.5258    0.0104 C.3      1 ZINC000463741321   -0.1500
2      C2      0.0021   -0.0041    0.0020 C.3      1 ZINC000463741321   -0.1100
3      H3     -1.0205   -0.3814    0.0098 H        1 ZINC000463741321    0.1000
4      C4      0.7182   -0.4975   -1.2568 C.3      1 ZINC000463741321   -0.0900
5      C5     -0.0892   -0.0968   -2.4931 C.3      1 ZINC000463741321   -0.0800
6      C6      0.6161   -0.5828   -3.7329 C.ar     1 ZINC000463741321   -0.1200
7      C7      1.4702    0.2604   -4.4176 C.ar     1 ZINC000463741321   -0.0900
8      C8      2.1175   -0.1852   -5.5553 C.ar     1 ZINC000463741321   -0.1300
9      C9      1.9107   -1.4743   -6.0092 C.ar     1 ZINC000463741321   -0.1000
10     C10     1.0565   -2.3194   -5.3262 C.ar     1 ZINC000463741321   -0.1500
11     C11     0.4130   -1.8765   -4.1833 C.ar     1 ZINC000463741321    0.1000
12     F12    -0.4222   -2.7017   -3.5149 F        1 ZINC000463741321   -0.1400
13     C13     0.7309   -0.5033    1.2229 C.2      1 ZINC000463741321    0.5200
14     O14     1.7253   -1.1865    1.0985 O.2      1 ZINC000463741321   -0.5300
15     N15     0.2778   -0.1906    2.4531 N.am     1 ZINC000463741321   -0.7300
16     C16     0.9864   -0.6759    3.6400 C.3      1 ZINC000463741321    0.1500
17     H17     1.3905   -1.6686    3.4420 H        1 ZINC000463741321    0.1000
18     C18     2.1305    0.2832    3.9801 C.3      1 ZINC000463741321   -0.1300
19     C19     2.8276   -0.1984    5.2555 C.3      1 ZINC000463741321   -0.1200
20     C20     1.8042   -0.2808    6.3904 C.3      1 ZINC000463741321    0.0600
21     N21     0.7310   -1.2109    6.0167 N.3      1 ZINC000463741321   -0.4800
22     C22    -0.1510   -1.4110    7.0811 C.ar     1 ZINC000463741321    0.1100
23     C23    -1.5087   -1.1683    6.9152 C.ar     1 ZINC000463741321   -0.1700
24     C24    -2.3781   -1.3677    7.9695 C.ar     1 ZINC000463741321   -0.0900
25     C25    -1.8984   -1.8079    9.1895 C.ar     1 ZINC000463741321   -0.1500
26     C26    -0.5475   -2.0505    9.3581 C.ar     1 ZINC000463741321   -0.0900
27     C27     0.3267   -1.8586    8.3063 C.ar     1 ZINC000463741321   -0.1400
28     C28     0.0161   -0.7454    4.8214 C.3      1 ZINC000463741321    0.0500
29     H29     1.0039    1.9031    0.0027 H        1 ZINC000463741321    0.0600
30     H30    -0.5459    1.8868   -0.8726 H        1 ZINC000463741321    0.0700
31     H31    -0.5289    1.8773    0.9072 H        1 ZINC000463741321    0.0600
32     H32     1.7103   -0.0491   -1.3098 H        1 ZINC000463741321    0.0700
33     H33     0.8116   -1.5829   -1.2198 H        1 ZINC000463741321    0.0700
34     H34    -1.0813   -0.5452   -2.4401 H        1 ZINC000463741321    0.0800
35     H35    -0.1826    0.9885   -2.5300 H        1 ZINC000463741321    0.0800
36     H36     1.6319    1.2680   -4.0643 H        1 ZINC000463741321    0.1300
37     H37     2.7848    0.4746   -6.0898 H        1 ZINC000463741321    0.1300
38     H38     2.4166   -1.8212   -6.8982 H        1 ZINC000463741321    0.1300
39     H39     0.8946   -3.3264   -5.6815 H        1 ZINC000463741321    0.1400
40     H40    -0.5174    0.3558    2.5526 H        1 ZINC000463741321    0.4000
41     H41     2.8465    0.3020    3.1585 H        1 ZINC000463741321    0.0700
42     H42     1.7310    1.2848    4.1394 H        1 ZINC000463741321    0.0600
43     H43     3.2606   -1.1838    5.0836 H        1 ZINC000463741321    0.0800
44     H44     3.6159    0.5039    5.5267 H        1 ZINC000463741321    0.0800
45     H45     2.2945   -0.6371    7.2963 H        1 ZINC000463741321    0.0900
46     H46     1.3817    0.7076    6.5710 H        1 ZINC000463741321    0.0500
47     H47    -1.8838   -0.8238    5.9628 H        1 ZINC000463741321    0.1200
48     H48    -3.4337   -1.1792    7.8412 H        1 ZINC000463741321    0.1200
49     H49    -2.5804   -1.9623   10.0126 H        1 ZINC000463741321    0.1200
50     H50    -0.1761   -2.3942   10.3123 H        1 ZINC000463741321    0.1200
51     H51     1.3816   -2.0485    8.4385 H        1 ZINC000463741321    0.1300
52     H52    -0.3982    0.2452    5.0088 H        1 ZINC000463741321    0.0500
53     H53    -0.7920   -1.4389    4.5885 H        1 ZINC000463741321    0.0900
@<TRIPOS>BOND
1     1     2     1
2     1     29    1
3     1     30    1
4     1     31    1
5     2     3     1
6     2     4     1
7     2     13    1
8     4     5     1
9     4     32    1
10    4     33    1
11    5     6     1
12    5     34    1
13    5     35    1
14    6     11    ar
15    6     7     ar
16    7     8     ar
17    7     36    1
18    8     9     ar
19    8     37    1
20    9     10    ar
21    9     38    1
22    10    11    ar
23    10    39    1
24    11    12    1
25    13    14    2
26    13    15    am
27    15    16    1
28    15    40    1
29    16    17    1
30    16    28    1
31    16    18    1
32    18    19    1
33    18    41    1
34    18    42    1
35    19    20    1
36    19    43    1
37    19    44    1
38    20    21    1
39    20    45    1
40    20    46    1
41    21    22    1
42    21    28    1
43    22    27    ar
44    22    23    ar
45    23    24    ar
46    23    47    1
47    24    25    ar
48    24    48    1
49    25    26    ar
50    25    49    1
51    26    27    ar
52    26    50    1
53    27    51    1
54    28    52    1
55    28    53    1
@<TRIPOS>SUBSTRUCTURE
1   ZINC000463741321 1     RESIDUE    1   A     ZIN   1
@<TRIPOS>MOLECULE
ZINC000279974681
42	45	1	0	0
SMALL
USER_CHARGES
@<TRIPOS>ATOM
1      C1     -0.7780    1.6810    0.3919 C.3      1 ZINC000279974681   -0.1400
2      C2     -0.5453    0.1793    0.2139 C.3      1 ZINC000279974681    0.0700
3      H3     -0.1181   -0.0086   -0.7712 H        1 ZINC000279974681    0.0600
4      C4     -1.8794   -0.5645    0.3439 C.3      1 ZINC000279974681    0.1000
5      N5     -1.6053   -2.0102    0.3569 N.am     1 ZINC000279974681   -0.6300
6      C6     -2.2691   -2.8496   -0.4625 C.2      1 ZINC000279974681    0.7100
7      O7     -3.1715   -2.4301   -1.1612 O.2      1 ZINC000279974681   -0.5600
8      N8     -1.9325   -4.1539   -0.5075 N.am     1 ZINC000279974681   -0.6700
9      C9     -2.5558   -5.0072   -1.4289 C.ar     1 ZINC000279974681    0.2000
10     C10    -3.2208   -4.4776   -2.5256 C.ar     1 ZINC000279974681   -0.1200
11     C11    -3.8360   -5.3210   -3.4359 C.ar     1 ZINC000279974681    0.0700
12     C12    -3.7861   -6.7000   -3.2487 C.ar     1 ZINC000279974681    0.0200
13     C13    -3.1217   -7.2256   -2.1522 C.ar     1 ZINC000279974681   -0.0700
14     C14    -2.5028   -6.3835   -1.2471 C.ar     1 ZINC000279974681   -0.0700
15     Cl15   -1.6715   -7.0457    0.1255 Cl       1 ZINC000279974681   -0.0500
16     O16    -4.4607   -7.3036   -4.2718 O.3      1 ZINC000279974681   -0.3000
17     C17    -5.2696   -6.2690   -4.8620 C.3      1 ZINC000279974681    0.2100
18     O18    -4.5413   -5.0604   -4.5756 O.3      1 ZINC000279974681   -0.3000
19     C19    -0.5848   -2.5124    1.2905 C.3      1 ZINC000279974681    0.0800
20     C20     0.6862   -1.6736    1.1144 C.3      1 ZINC000279974681    0.1100
21     H21     1.1183   -1.8691    0.1329 H        1 ZINC000279974681    0.0700
22     C22     1.6976   -2.0441    2.2010 C.3      1 ZINC000279974681   -0.1600
23     C23     2.9676   -2.7769    1.7638 C.3      1 ZINC000279974681   -0.1700
24     C24     3.0405   -1.3109    2.1957 C.3      1 ZINC000279974681   -0.1600
25     O25     0.3550   -0.2871    1.2217 O.3      1 ZINC000279974681   -0.3600
26     H26     0.1712    2.2091    0.3011 H        1 ZINC000279974681    0.0700
27     H27    -1.4659    2.0356   -0.3757 H        1 ZINC000279974681    0.0800
28     H28    -1.2052    1.8682    1.3771 H        1 ZINC000279974681    0.0700
29     H29    -2.3716   -0.2759    1.2726 H        1 ZINC000279974681    0.0800
30     H30    -2.5201   -0.3199   -0.5033 H        1 ZINC000279974681    0.1100
31     H31    -1.2591   -4.5021    0.0976 H        1 ZINC000279974681    0.4100
32     H32    -3.2589   -3.4078   -2.6691 H        1 ZINC000279974681    0.1800
33     H33    -3.0833   -8.2951   -2.0069 H        1 ZINC000279974681    0.1500
34     H34    -5.3565   -6.4180   -5.9382 H        1 ZINC000279974681    0.1400
35     H35    -6.2552   -6.2415   -4.3972 H        1 ZINC000279974681    0.0900
36     H36    -0.9467   -2.4199    2.3145 H        1 ZINC000279974681    0.0900
37     H37    -0.3683   -3.5577    1.0702 H        1 ZINC000279974681    0.0900
38     H38     1.2720   -2.3078    3.1692 H        1 ZINC000279974681    0.1100
39     H39     3.3777   -3.5230    2.4444 H        1 ZINC000279974681    0.1000
40     H40     3.0826   -2.9950    0.7021 H        1 ZINC000279974681    0.1000
41     H41     3.2034   -0.5646    1.4181 H        1 ZINC000279974681    0.1000
42     H42     3.4985   -1.0926    3.1604 H        1 ZINC000279974681    0.1000
@<TRIPOS>BOND
1     1     2     1
2     1     26    1
3     1     27    1
4     1     28    1
5     2     3     1
6     2     25    1
7     2     4     1
8     4     5     1
9     4     29    1
10    4     30    1
11    5     6     am
12    5     19    1
13    6     7     2
14    6     8     am
15    8     9     1
16    8     31    1
17    9     14    ar
18    9     10    ar
19    10    11    ar
20    10    32    1
21    11    18    1
22    11    12    ar
23    12    13    ar
24    12    16    1
25    13    14    ar
26    13    33    1
27    14    15    1
28    16    17    1
29    17    18    1
30    17    34    1
31    17    35    1
32    19    20    1
33    19    36    1
34    19    37    1
35    20    21    1
36    20    22    1
37    20    25    1
38    22    24    1
39    22    23    1
40    22    38    1
41    23    24    1
42    23    39    1
43    23    40    1
44    24    41    1
45    24    42    1
@<TRIPOS>SUBSTRUCTURE
1   ZINC000279974681 1     RESIDUE    1   A     ZIN   1
@<TRIPOS>MOLECULE
ZINC000892389374
41	43	1	0	0
SMALL
USER_CHARGES
@<TRIPOS>ATOM
1      C1     -0.0184    1.5028    0.0103 C.3      1 ZINC000892389374   -0.1000
2      C2      0.0021   -0.0041    0.0020 C.ar     1 ZINC000892389374   -0.1800
3      C3      0.0058   -0.6875   -1.1984 C.ar     1 ZINC000892389374   -0.0400
4      C4      0.0250   -2.0691   -1.2102 C.ar     1 ZINC000892389374   -0.2100
5      C5      0.0401   -2.7754   -0.0143 C.ar     1 ZINC000892389374    0.2200
6      N6      0.0595   -4.1747   -0.0274 N.am     1 ZINC000892389374   -0.5700
7      C7      0.0718   -5.0188   -1.2320 C.3      1 ZINC000892389374    0.0600
8      C8      0.0914   -6.4548   -0.6737 C.3      1 ZINC000892389374    0.0400
9      O9      0.0882   -6.2714    0.7717 O.3      1 ZINC000892389374   -0.3200
10     C10     0.0758   -4.9640    1.0554 C.2      1 ZINC000892389374    0.6400
11     O11     0.0710   -4.5319    2.1911 O.2      1 ZINC000892389374   -0.5000
12     C12     0.0365   -2.0923    1.1934 C.ar     1 ZINC000892389374   -0.2300
13     C13     0.0230   -0.7047    1.2022 C.ar     1 ZINC000892389374    0.2400
14     N14     0.0192   -0.0132    2.4156 N.pl3    1 ZINC000892389374   -0.7400
15     C15     0.0295   -0.7527    3.6802 C.3      1 ZINC000892389374    0.2000
16     C16     0.0229    0.2201    4.8311 C.2      1 ZINC000892389374   -0.2400
17     C17    -1.0611    0.7131    5.4377 C.2      1 ZINC000892389374    0.0600
18     N18    -0.8033    1.5501    6.4223 N.2      1 ZINC000892389374   -0.4500
19     C19     0.4379    1.7907    6.6801 C.2      1 ZINC000892389374    0.0200
20     C20     0.9303    2.7155    7.7633 C.3      1 ZINC000892389374   -0.0900
21     C21     1.1166    1.9271    9.0612 C.3      1 ZINC000892389374    0.4600
22     F22     2.0526    0.9075    8.8573 F        1 ZINC000892389374   -0.1800
23     F23     1.5737    2.7855   10.0668 F        1 ZINC000892389374   -0.1800
24     F24    -0.1063    1.3672    9.4463 F        1 ZINC000892389374   -0.1700
25     S25     1.4430    0.9027    5.6197 S.3      1 ZINC000892389374    0.1900
26     H26     1.0042    1.8801    0.0026 H        1 ZINC000892389374    0.0700
27     H27    -0.5455    1.8639   -0.8728 H        1 ZINC000892389374    0.0700
28     H28    -0.5286    1.8543    0.9071 H        1 ZINC000892389374    0.0600
29     H29    -0.0067   -0.1408   -2.1297 H        1 ZINC000892389374    0.1300
30     H30     0.0278   -2.6005   -2.1505 H        1 ZINC000892389374    0.1200
31     H31    -0.8266   -4.8512   -1.8260 H        1 ZINC000892389374    0.1000
32     H32     0.9657   -4.8263   -1.8252 H        1 ZINC000892389374    0.1000
33     H33    -0.7969   -7.0006   -0.9916 H        1 ZINC000892389374    0.1100
34     H34     0.9949   -6.9757   -0.9907 H        1 ZINC000892389374    0.1100
35     H35     0.0479   -2.6393    2.1246 H        1 ZINC000892389374    0.1600
36     H36     0.0098    0.9568    2.4211 H        1 ZINC000892389374    0.4000
37     H37    -0.8542   -1.3883    3.7366 H        1 ZINC000892389374    0.0900
38     H38     0.9257   -1.3710    3.7323 H        1 ZINC000892389374    0.0800
39     H39    -2.0661    0.4472    5.1449 H        1 ZINC000892389374    0.1800
40     H40     1.8831    3.1517    7.4632 H        1 ZINC000892389374    0.1300
41     H41     0.2011    3.5099    7.9222 H        1 ZINC000892389374    0.1400
@<TRIPOS>BOND
1     1     2     1
2     1     26    1
3     1     27    1
4     1     28    1
5     2     13    ar
6     2     3     ar
7     3     4     ar
8     3     29    1
9     4     5     ar
10    4     30    1
11    5     6     1
12    5     12    ar
13    6     10    am
14    6     7     1
15    7     8     1
16    7     31    1
17    7     32    1
18    8     9     1
19    8     33    1
20    8     34    1
21    9     10    1
22    10    11    2
23    12    13    ar
24    12    35    1
25    13    14    1
26    14    15    1
27    14    36    1
28    15    16    1
29    15    37    1
30    15    38    1
31    16    25    1
32    16    17    2
33    17    18    1
34    17    39    1
35    18    19    2
36    19    20    1
37    19    25    1
38    20    21    1
39    20    40    1
40    20    41    1
41    21    22    1
42    21    23    1
43    21    24    1
@<TRIPOS>SUBSTRUCTURE
1   ZINC000892389374 1     RESIDUE    1   A     ZIN   1
@<TRIPOS>MOLECULE
ZINC000643274279
53	56	1	0	0
SMALL
USER_CHARGES
@<TRIPOS>ATOM
1      O1      0.0019   -0.0040    0.0123 O.2      1 ZINC000643274279   -0.4900
2      C2     -0.0144    1.2097    0.0105 C.2      1 ZINC000643274279    0.5100
3      N3      1.1435    1.8993    0.0013 N.am     1 ZINC000643274279   -0.6400
4      C4      2.3618    1.2204    0.0916 C.ar     1 ZINC000643274279    0.1300
5      C5      2.5102   -0.0221   -0.5146 C.ar     1 ZINC000643274279   -0.1000
6      C6      3.7093   -0.7073   -0.4206 C.ar     1 ZINC000643274279   -0.1000
7      C7      4.7608   -0.1569    0.2784 C.ar     1 ZINC000643274279   -0.0600
8      C8      6.0540   -0.9358    0.4434 C.3      1 ZINC000643274279   -0.0900
9      C9      7.1638   -0.2377   -0.3343 C.3      1 ZINC000643274279   -0.1200
10     C10     7.8454    0.8317    0.5060 C.3      1 ZINC000643274279   -0.1100
11     C11     6.9998    2.0558    0.7511 C.3      1 ZINC000643274279   -0.1600
12     C12     5.7817    1.6911    1.5773 C.2      1 ZINC000643274279    0.4100
13     O13     5.7544    1.8799    2.7747 O.2      1 ZINC000643274279   -0.4400
14     C14     4.6323    1.0993    0.8706 C.ar     1 ZINC000643274279   -0.1300
15     C15     3.4224    1.7903    0.7809 C.ar     1 ZINC000643274279   -0.1000
16     C16    -1.3179    1.9389    0.0122 C.2      1 ZINC000643274279    0.5200
17     O17    -1.3343    3.1524    0.0104 O.2      1 ZINC000643274279   -0.5000
18     N18    -2.4758    1.2493    0.0157 N.am     1 ZINC000643274279   -0.5800
19     C19    -2.6011   -0.2196    0.0246 C.3      1 ZINC000643274279    0.0900
20     C20    -3.9965   -0.4948    0.6385 C.3      1 ZINC000643274279   -0.1400
21     C21    -4.8326    0.6704    0.0465 C.3      1 ZINC000643274279   -0.1200
22     C22    -3.8233    1.8374    0.0177 C.3      1 ZINC000643274279    0.1800
23     H23    -3.9577    2.4656    0.8983 H        1 ZINC000643274279    0.0900
24     C24    -4.0227    2.6567   -1.2313 C.ar     1 ZINC000643274279   -0.1000
25     C25    -3.5000    2.2195   -2.4343 C.ar     1 ZINC000643274279   -0.0900
26     C26    -3.6814    2.9687   -3.5807 C.ar     1 ZINC000643274279   -0.1400
27     C27    -4.3892    4.1605   -3.5242 C.ar     1 ZINC000643274279    0.1100
28     O28    -4.5694    4.8991   -4.6506 O.3      1 ZINC000643274279   -0.5000
29     C29    -4.9131    4.5968   -2.3160 C.ar     1 ZINC000643274279   -0.1400
30     C30    -4.7331    3.8416   -1.1734 C.ar     1 ZINC000643274279   -0.0900
31     H31     1.1313    2.8667   -0.0679 H        1 ZINC000643274279    0.4200
32     H32     1.6855   -0.4551   -1.0613 H        1 ZINC000643274279    0.1400
33     H33     3.8200   -1.6716   -0.8940 H        1 ZINC000643274279    0.1400
34     H34     6.3210   -0.9786    1.4993 H        1 ZINC000643274279    0.0800
35     H35     5.9212   -1.9473    0.0595 H        1 ZINC000643274279    0.0800
36     H36     7.9045   -0.9770   -0.6393 H        1 ZINC000643274279    0.0800
37     H37     6.7379    0.2261   -1.2241 H        1 ZINC000643274279    0.0700
38     H38     8.1137    0.3972    1.4690 H        1 ZINC000643274279    0.0700
39     H39     8.7612    1.1384    0.0006 H        1 ZINC000643274279    0.0800
40     H40     7.5890    2.8011    1.2854 H        1 ZINC000643274279    0.0900
41     H41     6.6777    2.4698   -0.2045 H        1 ZINC000643274279    0.0900
42     H42     3.3119    2.7581    1.2473 H        1 ZINC000643274279    0.1300
43     H43    -2.5497   -0.6109   -0.9914 H        1 ZINC000643274279    0.0800
44     H44    -1.8205   -0.6631    0.6428 H        1 ZINC000643274279    0.1000
45     H45    -4.3840   -1.4595    0.3110 H        1 ZINC000643274279    0.0900
46     H46    -3.9627   -0.4381    1.7265 H        1 ZINC000643274279    0.0800
47     H47    -5.1752    0.4271   -0.9592 H        1 ZINC000643274279    0.0800
48     H48    -5.6756    0.9086    0.6952 H        1 ZINC000643274279    0.0900
49     H49    -2.9490    1.2916   -2.4778 H        1 ZINC000643274279    0.1200
50     H50    -3.2722    2.6271   -4.5200 H        1 ZINC000643274279    0.1300
51     H51    -5.3709    4.6758   -5.1434 H        1 ZINC000643274279    0.3900
52     H52    -5.4642    5.5245   -2.2694 H        1 ZINC000643274279    0.1300
53     H53    -5.1410    4.1806   -0.2327 H        1 ZINC000643274279    0.1300
@<TRIPOS>BOND
1     1     2     2
2     2     3     am
3     2     16    1
4     3     4     1
5     3     31    1
6     4     15    ar
7     4     5     ar
8     5     6     ar
9     5     32    1
10    6     7     ar
11    6     33    1
12    7     14    ar
13    7     8     1
14    8     9     1
15    8     34    1
16    8     35    1
17    9     10    1
18    9     36    1
19    9     37    1
20    10    11    1
21    10    38    1
22    10    39    1
23    11    12    1
24    11    40    1
25    11    41    1
26    12    13    2
27    12    14    1
28    14    15    ar
29    15    42    1
30    16    17    2
31    16    18    am
32    18    22    1
33    18    19    1
34    19    20    1
35    19    43    1
36    19    44    1
37    20    21    1
38    20    45    1
39    20    46    1
40    21    22    1
41    21    47    1
42    21    48    1
43    22    23    1
44    22    24    1
45    24    30    ar
46    24    25    ar
47    25    26    ar
48    25    49    1
49    26    27    ar
50    26    50    1
51    27    28    1
52    27    29    ar
53    28    51    1
54    29    30    ar
55    29    52    1
56    30    53    1
@<TRIPOS>SUBSTRUCTURE
1   ZINC000643274279 1     RESIDUE    1   A     ZIN   1
@<TRIPOS>MOLECULE
ZINC000006915700
45	48	0	0	0
SMALL
USER_CHARGES
@<TRIPOS>ATOM
1 C1       -0.0184     1.5028     0.0103 C.3    1 <0>      -0.1200
2 C2        0.0021    -0.0041     0.0020 C.ar   1 <0>      -0.0500
3 C3        0.0057    -0.6863    -1.2016 C.ar   1 <0>      -0.1300
4 C4        0.0249    -2.0659    -1.2158 C.ar   1 <0>      -0.0600
5 C5        0.0405    -2.7727    -0.0132 C.ar   1 <0>      -0.0700
6 C6        0.0616    -4.2535    -0.0214 C.2    1 <0>       0.4400
7 N7        0.0708    -4.9116     1.1304 N.2    1 <0>      -0.5200
8 C8        0.0894    -6.2479     1.1387 C.2    1 <0>       0.3600
9 C9        0.1018    -7.1913     2.1580 C.2    1 <0>      -0.3200
10 C10       0.1189    -8.4556     1.5669 C.2    1 <0>       0.5500
11 O11       0.1325    -9.5210     2.1617 O.2    1 <0>      -0.5200
12 N12       0.1172    -8.3008     0.2285 N.am   1 <0>      -0.5000
13 N13       0.0989    -6.9325    -0.0591 N.pl3  1 <0>      -0.3300
14 C14       0.0889    -6.2262    -1.2272 C.2    1 <0>       0.3900
15 S15       0.1005    -7.0688    -2.7747 S.3    1 <0>       0.1200
16 C16       0.0807    -5.6537    -3.9031 C.3    1 <0>      -0.1500
17 C17       0.0874    -6.1468    -5.3272 C.2    1 <0>       0.5500
18 O18       0.1040    -7.3376    -5.5566 O.2    1 <0>      -0.5200
19 N19       0.0751    -5.2644    -6.3458 N.am   1 <0>      -0.6100
20 C20       0.0611    -3.8004    -6.2112 C.3    1 <0>       0.0900
21 C21       0.0239    -3.2096    -7.6364 C.3    1 <0>      -0.1300
22 C22      -0.5521    -4.3764    -8.4814 C.3    1 <0>      -0.1400
23 C23       0.0797    -5.6072    -7.7797 C.3    1 <0>       0.1000
24 N24       0.0654    -4.9031    -1.1879 N.2    1 <0>      -0.5600
25 C25       0.0368    -2.0790     1.1970 C.ar   1 <0>      -0.0500
26 C26       0.0229    -0.6993     1.1980 C.ar   1 <0>      -0.1300
27 H27       1.0042     1.8801     0.0026 H      1 <0>       0.0800
28 H28      -0.5455     1.8639    -0.8728 H      1 <0>       0.0700
29 H29      -0.5286     1.8543     0.9071 H      1 <0>       0.0700
30 H30      -0.0068    -0.1380    -2.1319 H      1 <0>       0.1300
31 H31       0.0273    -2.5974    -2.1559 H      1 <0>       0.1300
32 H32       0.0991    -6.9838     3.2179 H      1 <0>       0.1800
33 H33       0.1267    -9.0174    -0.4252 H      1 <0>       0.4400
34 H34      -0.8176    -5.0618    -3.7278 H      1 <0>       0.1400
35 H35       0.9622    -5.0370    -3.7280 H      1 <0>       0.1400
36 H36      -0.8237    -3.4875    -5.6570 H      1 <0>       0.0800
37 H37       0.9615    -3.4670    -5.6951 H      1 <0>       0.0800
38 H38      -0.6349    -2.3421    -7.6771 H      1 <0>       0.0900
39 H39       1.0276    -2.9491    -7.9722 H      1 <0>       0.0800
40 H40      -1.6401    -4.4033    -8.4200 H      1 <0>       0.0800
41 H41      -0.2225    -4.3080    -9.5181 H      1 <0>       0.0900
42 H42       1.0984    -5.7645    -8.1342 H      1 <0>       0.0800
43 H43      -0.5256    -6.4964    -7.9556 H      1 <0>       0.0800
44 H44       0.0488    -2.6207     2.1313 H      1 <0>       0.1400
45 H45       0.0203    -0.1611     2.1343 H      1 <0>       0.1300
@<TRIPOS>BOND
1    1    2 1
2    1   27 1
3    1   28 1
4    1   29 1
5    2   26 ar
6    2    3 ar
7    3    4 ar
8    3   30 1
9    4    5 ar
10    4   31 1
11    5    6 1
12    5   25 ar
13    6   24 1
14    6    7 2
15    7    8 1
16    8   13 1
17    8    9 2
18    9   10 1
19    9   32 1
20   10   11 2
21   10   12 am
22   12   13 1
23   12   33 1
24   13   14 1
25   14   15 1
26   14   24 2
27   15   16 1
28   16   17 1
29   16   34 1
30   16   35 1
31   17   18 2
32   17   19 am
33   19   23 1
34   19   20 1
35   20   21 1
36   20   36 1
37   20   37 1
38   21   22 1
39   21   38 1
40   21   39 1
41   22   23 1
42   22   40 1
43   22   41 1
44   23   42 1
45   23   43 1
46   25   26 ar
47   25   44 1
48   26   45 1
@<TRIPOS>MOLECULE
ZINC000062291520
59	61	1	0	0
SMALL
USER_CHARGES
@<TRIPOS>ATOM
1      C1     -2.7987    2.9673   -9.6024 C.3      1 ZINC000062291520    0.0300
2      O2     -2.2104    2.5716   -8.3616 O.3      1 ZINC000062291520   -0.3100
3      C3     -1.0876    1.8071   -8.4268 C.ar     1 ZINC000062291520    0.1000
4      C4     -0.5605    1.4513   -9.6574 C.ar     1 ZINC000062291520   -0.1700
5      C5      0.5781    0.6691   -9.7218 C.ar     1 ZINC000062291520   -0.1200
6      C6      1.1959    0.2455   -8.5603 C.ar     1 ZINC000062291520   -0.1200
7      C7      0.6784    0.6024   -7.3286 C.ar     1 ZINC000062291520   -0.1700
8      C8     -0.4619    1.3857   -7.2570 C.ar     1 ZINC000062291520    0.1000
9      O9     -0.9720    1.7376   -6.0464 O.3      1 ZINC000062291520   -0.3100
10     C10    -0.2809    1.2642   -4.8887 C.3      1 ZINC000062291520    0.0700
11     C11    -0.9970    1.7576   -3.6299 C.3      1 ZINC000062291520   -0.1400
12     C12    -0.2681    1.2584   -2.4090 C.2      1 ZINC000062291520    0.5200
13     O13     0.7262    0.5752   -2.5335 O.2      1 ZINC000062291520   -0.5400
14     N14    -0.7213    1.5711   -1.1789 N.am     1 ZINC000062291520   -0.7200
15     C15    -0.0127    1.0858    0.0080 C.3      1 ZINC000062291520    0.1600
16     C16    -0.7181    1.5718    1.2479 C.ar     1 ZINC000062291520   -0.1100
17     C17    -1.7193    0.8081    1.8176 C.ar     1 ZINC000062291520   -0.1000
18     C18    -2.3661    1.2538    2.9554 C.ar     1 ZINC000062291520   -0.1200
19     C19    -2.0116    2.4631    3.5230 C.ar     1 ZINC000062291520   -0.0900
20     C20    -1.0104    3.2273    2.9528 C.ar     1 ZINC000062291520   -0.0800
21     C21    -0.6241    4.5460    3.5715 C.3      1 ZINC000062291520    0.0900
22     N22     0.4414    4.3301    4.5594 N.3      1 ZINC000062291520   -0.5300
23     C23     1.6782    3.8733    3.9089 C.3      1 ZINC000062291520    0.0100
24     C24     2.7409    3.6040    4.9776 C.3      1 ZINC000062291520    0.0600
25     O25     2.9423    4.7894    5.7518 O.3      1 ZINC000062291520   -0.3800
26     C26     1.7582    5.2619    6.3999 C.3      1 ZINC000062291520    0.0900
27     H27     1.3951    4.5030    7.0929 H        1 ZINC000062291520    0.0700
28     C28     2.0745    6.5463    7.1687 C.3      1 ZINC000062291520   -0.1500
29     C29     0.6855    5.5480    5.3457 C.3      1 ZINC000062291520    0.0200
30     C30    -0.3598    2.7790    1.8187 C.ar     1 ZINC000062291520   -0.0900
31     H31    -2.0791    3.5520  -10.1755 H        1 ZINC000062291520    0.0500
32     H32    -3.0807    2.0805  -10.1700 H        1 ZINC000062291520    0.0600
33     H33    -3.6850    3.5713   -9.4080 H        1 ZINC000062291520    0.1000
34     H34    -1.0413    1.7809  -10.5665 H        1 ZINC000062291520    0.1400
35     H35     0.9857    0.3889  -10.6819 H        1 ZINC000062291520    0.1300
36     H36     2.0849   -0.3652   -8.6147 H        1 ZINC000062291520    0.1300
37     H37     1.1634    0.2707   -6.4224 H        1 ZINC000062291520    0.1400
38     H38     0.7417    1.6415   -4.8965 H        1 ZINC000062291520    0.0700
39     H39    -0.2661    0.1743   -4.8947 H        1 ZINC000062291520    0.0700
40     H40    -2.0196    1.3803   -3.6222 H        1 ZINC000062291520    0.1100
41     H41    -1.0118    2.8475   -3.6239 H        1 ZINC000062291520    0.1100
42     H42    -1.5165    2.1175   -1.0793 H        1 ZINC000062291520    0.4000
43     H43     0.0021   -0.0041    0.0020 H        1 ZINC000062291520    0.0800
44     H44     1.0099    1.4631    0.0003 H        1 ZINC000062291520    0.0800
45     H45    -1.9960   -0.1370    1.3743 H        1 ZINC000062291520    0.1200
46     H46    -3.1482    0.6568    3.4008 H        1 ZINC000062291520    0.1300
47     H47    -2.5169    2.8112    4.4118 H        1 ZINC000062291520    0.1200
48     H48    -0.2673    5.2214    2.7939 H        1 ZINC000062291520    0.0500
49     H49    -1.4923    4.9847    4.0634 H        1 ZINC000062291520    0.0900
50     H50     1.4801    2.9566    3.3534 H        1 ZINC000062291520    0.0900
51     H51     2.0356    4.6432    3.2252 H        1 ZINC000062291520    0.0400
52     H52     2.4059    2.7965    5.6287 H        1 ZINC000062291520    0.0600
53     H53     3.6769    3.3200    4.4966 H        1 ZINC000062291520    0.1000
54     H54     2.4361    7.3053    6.4750 H        1 ZINC000062291520    0.0600
55     H55     1.1717    6.9059    7.6624 H        1 ZINC000062291520    0.0700
56     H56     2.8410    6.3428    7.9165 H        1 ZINC000062291520    0.0700
57     H57     1.0275    6.3451    4.6855 H        1 ZINC000062291520    0.0400
58     H58    -0.2371    5.8538    5.8389 H        1 ZINC000062291520    0.0900
59     H59     0.4255    3.3737    1.3761 H        1 ZINC000062291520    0.1200
@<TRIPOS>BOND
1     1     2     1
2     1     31    1
3     1     32    1
4     1     33    1
5     2     3     1
6     3     8     ar
7     3     4     ar
8     4     5     ar
9     4     34    1
10    5     6     ar
11    5     35    1
12    6     7     ar
13    6     36    1
14    7     8     ar
15    7     37    1
16    8     9     1
17    9     10    1
18    10    11    1
19    10    38    1
20    10    39    1
21    11    12    1
22    11    40    1
23    11    41    1
24    12    13    2
25    12    14    am
26    14    15    1
27    14    42    1
28    15    16    1
29    15    43    1
30    15    44    1
31    16    30    ar
32    16    17    ar
33    17    18    ar
34    17    45    1
35    18    19    ar
36    18    46    1
37    19    20    ar
38    19    47    1
39    20    21    1
40    20    30    ar
41    21    22    1
42    21    48    1
43    21    49    1
44    22    29    1
45    22    23    1
46    23    24    1
47    23    50    1
48    23    51    1
49    24    25    1
50    24    52    1
51    24    53    1
52    25    26    1
53    26    27    1
54    26    28    1
55    26    29    1
56    28    54    1
57    28    55    1
58    28    56    1
59    29    57    1
60    29    58    1
61    30    59    1
@<TRIPOS>SUBSTRUCTURE
1   ZINC000062291520 1     RESIDUE    1   A     ZIN   1
@<TRIPOS>MOLECULE
ZINC000859608860
44	45	1	0	0
SMALL
USER_CHARGES
@<TRIPOS>ATOM
1      C1     -0.0187    1.5258    0.0104 C.3      1 ZINC000859608860   -0.1400
2      C2      0.0021   -0.0041    0.0020 C.3      1 ZINC000859608860   -0.0800
3      C3      0.7421   -0.5109    1.2415 C.3      1 ZINC000859608860   -0.1400
4      C4     -1.4333   -0.5336    0.0129 C.3      1 ZINC000859608860   -0.1400
5      C5      0.7182   -0.4975   -1.2568 C.3      1 ZINC000859608860    0.1300
6      N6      2.0926    0.0096   -1.2672 N.am     1 ZINC000859608860   -0.7300
7      C7      2.9171   -0.2992   -2.2876 C.2      1 ZINC000859608860    0.5100
8      O8      2.5213   -0.9969   -3.1972 O.2      1 ZINC000859608860   -0.5100
9      C9      4.3309    0.2224   -2.2983 C.3      1 ZINC000859608860    0.0500
10     O10     5.0106   -0.2459   -3.4929 O.3      1 ZINC000859608860   -0.3100
11     C11     6.2934    0.1346   -3.6561 C.2      1 ZINC000859608860    0.5600
12     O12     6.8292    0.8386   -2.8226 O.2      1 ZINC000859608860   -0.5100
13     C13     7.0451   -0.3022   -4.8433 C.2      1 ZINC000859608860   -0.0400
14     C14     8.3444    0.0018   -5.1320 C.2      1 ZINC000859608860    0.0500
15     N15     8.6353   -0.6029   -6.3158 N.pl3    1 ZINC000859608860   -0.4100
16     C16     9.8641   -0.5565   -6.9899 C.ar     1 ZINC000859608860    0.1400
17     C17    10.9277    0.1528   -6.4486 C.ar     1 ZINC000859608860   -0.1200
18     C18    12.1371    0.1966   -7.1142 C.ar     1 ZINC000859608860   -0.0600
19     C19    12.2891   -0.4656   -8.3195 C.ar     1 ZINC000859608860   -0.1000
20     Br20   13.9463   -0.4034   -9.2281 Br       1 ZINC000859608860   -0.0300
21     C21    11.2308   -1.1735   -8.8608 C.ar     1 ZINC000859608860   -0.0600
22     C22    10.0208   -1.2244   -8.1968 C.ar     1 ZINC000859608860   -0.1200
23     C23     7.5170   -1.2612   -6.7270 C.2      1 ZINC000859608860    0.2000
24     N24     6.5740   -1.0857   -5.8474 N.2      1 ZINC000859608860   -0.4300
25     H25     1.0039    1.9031    0.0027 H        1 ZINC000859608860    0.0500
26     H26    -0.5459    1.8868   -0.8726 H        1 ZINC000859608860    0.0600
27     H27    -0.5289    1.8773    0.9072 H        1 ZINC000859608860    0.0600
28     H28     0.2319   -0.1594    2.1383 H        1 ZINC000859608860    0.0600
29     H29     0.7568   -1.6008    1.2356 H        1 ZINC000859608860    0.0600
30     H30     1.7647   -0.1336    1.2338 H        1 ZINC000859608860    0.0500
31     H31    -1.9605   -0.1726   -0.8702 H        1 ZINC000859608860    0.0600
32     H32    -1.4185   -1.6235    0.0069 H        1 ZINC000859608860    0.0600
33     H33    -1.9435   -0.1821    0.9097 H        1 ZINC000859608860    0.0600
34     H34     0.7330   -1.5874   -1.2628 H        1 ZINC000859608860    0.0700
35     H35     0.1910   -0.1364   -2.1398 H        1 ZINC000859608860    0.0700
36     H36     2.4092    0.5676   -0.5397 H        1 ZINC000859608860    0.4000
37     H37     4.3162    1.3123   -2.2923 H        1 ZINC000859608860    0.1000
38     H38     4.8581   -0.1387   -1.4152 H        1 ZINC000859608860    0.1000
39     H39     9.0124    0.6060   -4.5360 H        1 ZINC000859608860    0.2000
40     H40    10.8094    0.6702   -5.5080 H        1 ZINC000859608860    0.1400
41     H41    12.9646    0.7486   -6.6936 H        1 ZINC000859608860    0.1500
42     H42    11.3519   -1.6896   -9.8018 H        1 ZINC000859608860    0.1500
43     H43     9.1950   -1.7771   -8.6198 H        1 ZINC000859608860    0.1500
44     H44     7.4279   -1.8393   -7.6349 H        1 ZINC000859608860    0.2200
@<TRIPOS>BOND
1     1     2     1
2     1     25    1
3     1     26    1
4     1     27    1
5     2     3     1
6     2     4     1
7     2     5     1
8     3     28    1
9     3     29    1
10    3     30    1
11    4     31    1
12    4     32    1
13    4     33    1
14    5     6     1
15    5     34    1
16    5     35    1
17    6     7     am
18    6     36    1
19    7     8     2
20    7     9     1
21    9     10    1
22    9     37    1
23    9     38    1
24    10    11    1
25    11    12    2
26    11    13    1
27    13    24    1
28    13    14    2
29    14    15    1
30    14    39    1
31    15    16    1
32    15    23    1
33    16    22    ar
34    16    17    ar
35    17    18    ar
36    17    40    1
37    18    19    ar
38    18    41    1
39    19    20    1
40    19    21    ar
41    21    22    ar
42    21    42    1
43    22    43    1
44    23    24    2
45    23    44    1
@<TRIPOS>SUBSTRUCTURE
1   ZINC000859608860 1     RESIDUE    1   A     ZIN   1
@<TRIPOS>MOLECULE
ZINC001065334255
49	50	1	0	0
SMALL
USER_CHARGES
@<TRIPOS>ATOM
1      C1      0.0010    1.5157   -0.0123 C.3      1 ZINC001065334255   -0.1500
2      C2      0.0176   -0.0142   -0.0121 C.3      1 ZINC001065334255   -0.0800
3      C3      0.7503   -0.5161    1.2338 C.3      1 ZINC001065334255   -0.1500
4      C4     -1.4193   -0.5399   -0.0051 C.3      1 ZINC001065334255   -0.1400
5      C5     -1.4054   -2.0417   -0.1287 C.2      1 ZINC001065334255    0.5100
6      O6     -0.3501   -2.6334   -0.2140 O.2      1 ZINC001065334255   -0.5300
7      N7     -2.5656   -2.7274   -0.1445 N.am     1 ZINC001065334255   -0.7300
8      C8     -2.5520   -4.1874   -0.2647 C.3      1 ZINC001065334255    0.1300
9      C9     -3.9889   -4.7130   -0.2577 C.3      1 ZINC001065334255    0.0700
10     H10    -4.5373   -4.2848   -1.0968 H        1 ZINC001065334255    0.0700
11     C11    -3.9758   -6.2409   -0.3809 C.3      1 ZINC001065334255    0.0800
12     N12    -5.3481   -6.7342   -0.1839 N.am     1 ZINC001065334255   -0.6100
13     C13    -5.9114   -7.5874   -1.0621 C.2      1 ZINC001065334255    0.5400
14     O14    -5.3240   -7.8847   -2.0807 O.2      1 ZINC001065334255   -0.5200
15     C15    -7.2711   -8.1719   -0.7785 C.3      1 ZINC001065334255   -0.1100
16     H16    -7.4459   -8.2052    0.2969 H        1 ZINC001065334255    0.1200
17     C17    -7.3704   -9.5879   -1.3726 C.3      1 ZINC001065334255   -0.1000
18     C18    -8.8498  -10.0216   -1.3721 C.3      1 ZINC001065334255   -0.5900
19     S19    -9.8025   -8.4646   -1.4903 S.o2     1 ZINC001065334255    2.3900
20     O20   -10.4398   -8.3976   -2.7586 O.2      1 ZINC001065334255   -0.9300
21     O21   -10.5655   -8.2882   -0.3046 O.2      1 ZINC001065334255   -0.9300
22     C22    -8.3689   -7.3221   -1.4689 C.3      1 ZINC001065334255   -0.5900
23     C23    -6.0870   -6.2689    1.0005 C.3      1 ZINC001065334255    0.0600
24     C24    -5.9973   -4.7396    1.0564 C.3      1 ZINC001065334255    0.0500
25     O25    -4.6264   -4.3440    0.9675 O.3      1 ZINC001065334255   -0.3700
26     H26     1.0246    1.8902   -0.0172 H        1 ZINC001065334255    0.0600
27     H27    -0.5210    1.8733   -0.8999 H        1 ZINC001065334255    0.0500
28     H28    -0.5125    1.8736    0.8801 H        1 ZINC001065334255    0.0600
29     H29     0.5311   -0.3721   -0.9044 H        1 ZINC001065334255    0.0800
30     H30     0.2368   -0.1582    2.1262 H        1 ZINC001065334255    0.0500
31     H31     0.7621   -1.6060    1.2339 H        1 ZINC001065334255    0.0700
32     H32     1.7739   -0.1416    1.2288 H        1 ZINC001065334255    0.0500
33     H33    -1.9053   -0.2566    0.9285 H        1 ZINC001065334255    0.0900
34     H34    -1.9670   -0.1113   -0.8444 H        1 ZINC001065334255    0.0900
35     H35    -3.4096   -2.2541   -0.0763 H        1 ZINC001065334255    0.4000
36     H36    -2.0661   -4.4706   -1.1983 H        1 ZINC001065334255    0.0900
37     H37    -2.0043   -4.6159    0.5746 H        1 ZINC001065334255    0.0800
38     H38    -3.6217   -6.5264   -1.3715 H        1 ZINC001065334255    0.1100
39     H39    -3.3205   -6.6649    0.3800 H        1 ZINC001065334255    0.0900
40     H40    -6.9900   -9.5842   -2.3941 H        1 ZINC001065334255    0.1000
41     H41    -6.7851  -10.2808   -0.7682 H        1 ZINC001065334255    0.1000
42     H42    -9.0577  -10.6588   -2.2317 H        1 ZINC001065334255    0.1500
43     H43    -9.0909  -10.5435   -0.4460 H        1 ZINC001065334255    0.1400
44     H44    -8.5939   -6.4300   -0.8842 H        1 ZINC001065334255    0.1400
45     H45    -8.0708   -7.0563   -2.4830 H        1 ZINC001065334255    0.1500
46     H46    -7.1310   -6.5729    0.9247 H        1 ZINC001065334255    0.1000
47     H47    -5.6443   -6.6958    1.9005 H        1 ZINC001065334255    0.0900
48     H48    -6.5537   -4.3116    0.2225 H        1 ZINC001065334255    0.0600
49     H49    -6.4185   -4.3843    1.9968 H        1 ZINC001065334255    0.1100
@<TRIPOS>BOND
1     1     2     1
2     1     26    1
3     1     27    1
4     1     28    1
5     2     3     1
6     2     4     1
7     2     29    1
8     3     30    1
9     3     31    1
10    3     32    1
11    4     5     1
12    4     33    1
13    4     34    1
14    5     6     2
15    5     7     am
16    7     8     1
17    7     35    1
18    8     9     1
19    8     36    1
20    8     37    1
21    9     10    1
22    9     25    1
23    9     11    1
24    11    12    1
25    11    38    1
26    11    39    1
27    12    13    am
28    12    23    1
29    13    14    2
30    13    15    1
31    15    16    1
32    15    22    1
33    15    17    1
34    17    18    1
35    17    40    1
36    17    41    1
37    18    19    1
38    18    42    1
39    18    43    1
40    19    20    2
41    19    21    2
42    19    22    1
43    22    44    1
44    22    45    1
45    23    24    1
46    23    46    1
47    23    47    1
48    24    25    1
49    24    48    1
50    24    49    1
@<TRIPOS>SUBSTRUCTURE
1   ZINC001065334255 1     RESIDUE    1   A     ZIN   1
@<TRIPOS>MOLECULE
ZINC000541000201
52	54	1	0	0
SMALL
USER_CHARGES
@<TRIPOS>ATOM
1      C1     -0.0176    1.4478    0.0100 C.3      1 ZINC000541000201    0.0400
2      O2      0.0021   -0.0041    0.0020 O.3      1 ZINC000541000201   -0.3500
3      C3     -1.1855   -0.6297    0.0100 C.2      1 ZINC000541000201    0.4500
4      O4     -2.2076    0.0145    0.0232 O.2      1 ZINC000541000201   -0.4900
5      C5     -1.2439   -2.1355    0.0025 C.3      1 ZINC000541000201    0.2100
6      H6     -0.7531   -2.5137   -0.8943 H        1 ZINC000541000201    0.1400
7      N7     -2.6430   -2.5700    0.0135 N.am     1 ZINC000541000201   -0.7100
8      C8     -3.3278   -2.6664   -1.1433 C.2      1 ZINC000541000201    0.5800
9      O9     -2.7845   -2.3929   -2.1960 O.2      1 ZINC000541000201   -0.5300
10     C10    -4.7375   -3.1042   -1.1322 C.ar     1 ZINC000541000201   -0.2300
11     C11    -5.4582   -3.2138   -2.3303 C.ar     1 ZINC000541000201    0.0200
12     C12    -6.7734   -3.6270   -2.2685 C.ar     1 ZINC000541000201   -0.2000
13     C13    -7.3372   -3.9191   -1.0306 C.ar     1 ZINC000541000201    0.3500
14     O14    -8.6281   -4.3253   -0.9639 O.3      1 ZINC000541000201   -0.2900
15     C15    -9.1521   -4.6108    0.3346 C.3      1 ZINC000541000201    0.0800
16     C16    -9.8932   -3.3755    0.9037 C.3      1 ZINC000541000201   -0.1400
17     C17   -10.8624   -4.0039    1.9357 C.3      1 ZINC000541000201   -0.1200
18     C18   -11.3290   -5.3138    1.2677 C.3      1 ZINC000541000201   -0.1200
19     C19   -10.2415   -5.6997    0.2497 C.3      1 ZINC000541000201   -0.1200
20     N20    -6.6301   -3.8062    0.0835 N.ar     1 ZINC000541000201   -0.5400
21     C21    -5.3714   -3.4208    0.0702 C.ar     1 ZINC000541000201    0.1800
22     C22    -0.5418   -2.6716    1.2234 C.ar     1 ZINC000541000201   -0.1300
23     C23    -1.1949   -2.6916    2.4420 C.ar     1 ZINC000541000201   -0.0700
24     C24    -0.5534   -3.1825    3.5627 C.ar     1 ZINC000541000201   -0.1300
25     C25     0.7469   -3.6561    3.4646 C.ar     1 ZINC000541000201    0.1200
26     O26     1.3798   -4.1399    4.5656 O.3      1 ZINC000541000201   -0.3200
27     C27     2.7176   -4.6107    4.3904 C.3      1 ZINC000541000201    0.4100
28     F28     2.7259   -5.6571    3.4618 F        1 ZINC000541000201   -0.2000
29     F29     3.5222   -3.5660    3.9229 F        1 ZINC000541000201   -0.2000
30     C30     1.3997   -3.6353    2.2407 C.ar     1 ZINC000541000201   -0.1900
31     C31     0.7522   -3.1478    1.1220 C.ar     1 ZINC000541000201   -0.0500
32     H32     1.0050    1.8251    0.0023 H        1 ZINC000541000201    0.1000
33     H33    -0.5448    1.8089   -0.8731 H        1 ZINC000541000201    0.0600
34     H34    -0.5278    1.7993    0.9068 H        1 ZINC000541000201    0.0600
35     H35    -3.0765   -2.7882    0.8534 H        1 ZINC000541000201    0.4100
36     H36    -4.9955   -2.9802   -3.2778 H        1 ZINC000541000201    0.1600
37     H37    -7.3587   -3.7223   -3.1712 H        1 ZINC000541000201    0.1500
38     H38    -8.3531   -4.9222    1.0074 H        1 ZINC000541000201    0.1000
39     H39    -9.1943   -2.6974    1.3933 H        1 ZINC000541000201    0.0700
40     H40   -10.4462   -2.8609    0.1179 H        1 ZINC000541000201    0.0800
41     H41   -10.3407   -4.2163    2.8689 H        1 ZINC000541000201    0.0700
42     H42   -11.7109   -3.3432    2.1137 H        1 ZINC000541000201    0.0700
43     H43   -11.4341   -6.0983    2.0172 H        1 ZINC000541000201    0.0700
44     H44   -12.2788   -5.1549    0.7572 H        1 ZINC000541000201    0.0700
45     H45   -10.6636   -5.7281   -0.7548 H        1 ZINC000541000201    0.0800
46     H46    -9.8189   -6.6714    0.5051 H        1 ZINC000541000201    0.0700
47     H47    -4.8267   -3.3408    0.9993 H        1 ZINC000541000201    0.1600
48     H48    -2.2071   -2.3229    2.5178 H        1 ZINC000541000201    0.1300
49     H49    -1.0637   -3.1973    4.5144 H        1 ZINC000541000201    0.1400
50     H50     3.1048   -4.9686    5.3444 H        1 ZINC000541000201    0.1900
51     H51     2.4121   -4.0031    2.1619 H        1 ZINC000541000201    0.1400
52     H52     1.2599   -3.1318    0.1689 H        1 ZINC000541000201    0.1400
@<TRIPOS>BOND
1     1     2     1
2     1     32    1
3     1     33    1
4     1     34    1
5     2     3     1
6     3     4     2
7     3     5     1
8     5     6     1
9     5     7     1
10    5     22    1
11    7     8     am
12    7     35    1
13    8     9     2
14    8     10    1
15    10    21    ar
16    10    11    ar
17    11    12    ar
18    11    36    1
19    12    13    ar
20    12    37    1
21    13    14    1
22    13    20    ar
23    14    15    1
24    15    19    1
25    15    16    1
26    15    38    1
27    16    17    1
28    16    39    1
29    16    40    1
30    17    18    1
31    17    41    1
32    17    42    1
33    18    19    1
34    18    43    1
35    18    44    1
36    19    45    1
37    19    46    1
38    20    21    ar
39    21    47    1
40    22    31    ar
41    22    23    ar
42    23    24    ar
43    23    48    1
44    24    25    ar
45    24    49    1
46    25    26    1
47    25    30    ar
48    26    27    1
49    27    28    1
50    27    29    1
51    27    50    1
52    30    31    ar
53    30    51    1
54    31    52    1
@<TRIPOS>SUBSTRUCTURE
1   ZINC000541000201 1     RESIDUE    1   A     ZIN   1
@<TRIPOS>MOLECULE
ZINC001010141213
42	44	1	0	0
SMALL
USER_CHARGES
@<TRIPOS>ATOM
1      C1     -0.9988   -0.9234   -0.3149 C.3      1 ZINC001010141213   -0.0800
2      C2      0.4987   -1.0849   -0.3646 C.2      1 ZINC001010141213   -0.1500
3      C3      1.3297   -0.8745   -1.4512 C.2      1 ZINC001010141213   -0.0400
4      C4      0.9280   -0.4456   -2.8004 C.2      1 ZINC001010141213    0.6000
5      O5      0.7135    0.7301   -3.0262 O.2      1 ZINC001010141213   -0.5100
6      N6      0.7979   -1.3557   -3.7860 N.am     1 ZINC001010141213   -0.6100
7      C7      0.9428   -2.7905   -3.5030 C.3      1 ZINC001010141213    0.0900
8      C8     -0.3209   -3.5148   -3.9835 C.3      1 ZINC001010141213    0.0700
9      N9     -0.6107   -3.0902   -5.3603 N.am     1 ZINC001010141213   -0.6000
10     C10    -0.7418   -4.0003   -6.3456 C.2      1 ZINC001010141213    0.5900
11     O11    -0.7845   -3.6386   -7.5053 O.2      1 ZINC001010141213   -0.5200
12     C12    -0.8337   -5.4390   -6.0159 C.2      1 ZINC001010141213    0.0300
13     N13    -0.9344   -5.8184   -4.7619 N.2      1 ZINC001010141213   -0.1800
14     N14    -1.0169   -7.0543   -4.4242 N.am     1 ZINC001010141213   -0.4400
15     C15    -1.0052   -8.0418   -5.3388 C.2      1 ZINC001010141213    0.4800
16     O16    -1.0856   -9.2067   -4.9859 O.2      1 ZINC001010141213   -0.5100
17     C17    -0.8995   -7.7200   -6.7103 C.2      1 ZINC001010141213   -0.1800
18     C18    -0.8186   -6.4029   -7.0528 C.2      1 ZINC001010141213   -0.0400
19     C19    -0.7556   -1.6553   -5.6433 C.3      1 ZINC001010141213    0.1000
20     C20     0.5025   -0.9314   -5.1617 C.3      1 ZINC001010141213    0.1000
21     N21     2.5975   -1.1447   -1.0203 N.pl3    1 ZINC001010141213   -0.2700
22     C22     3.8063   -1.0527   -1.8427 C.3      1 ZINC001010141213    0.0900
23     N23     2.5680   -1.4912    0.2162 N.2      1 ZINC001010141213   -0.2800
24     C24     1.3436   -1.4728    0.6777 C.2      1 ZINC001010141213    0.0100
25     H25    -1.2447    0.0995   -0.0297 H        1 ZINC001010141213    0.0700
26     H26    -1.4202   -1.1379   -1.2970 H        1 ZINC001010141213    0.0600
27     H27    -1.4147   -1.6149    0.4178 H        1 ZINC001010141213    0.0700
28     H28     1.8120   -3.1817   -4.0317 H        1 ZINC001010141213    0.0800
29     H29     1.0653   -2.9413   -2.4305 H        1 ZINC001010141213    0.1000
30     H30    -0.1564   -4.5921   -3.9599 H        1 ZINC001010141213    0.1400
31     H31    -1.1592   -3.2561   -3.3367 H        1 ZINC001010141213    0.0800
32     H32    -1.0894   -7.2827   -3.4842 H        1 ZINC001010141213    0.4500
33     H33    -0.8878   -8.4931   -7.4643 H        1 ZINC001010141213    0.1700
34     H34    -0.7367   -6.1032   -8.0871 H        1 ZINC001010141213    0.1700
35     H35    -0.8782   -1.5045   -6.7158 H        1 ZINC001010141213    0.1100
36     H36    -1.6249   -1.2641   -5.1146 H        1 ZINC001010141213    0.0800
37     H37     0.3366    0.1457   -5.1858 H        1 ZINC001010141213    0.1100
38     H38     1.3424   -1.1892   -5.8067 H        1 ZINC001010141213    0.0800
39     H39     4.2693   -0.0762   -1.7004 H        1 ZINC001010141213    0.0900
40     H40     4.5071   -1.8336   -1.5472 H        1 ZINC001010141213    0.1000
41     H41     3.5421   -1.1800   -2.8925 H        1 ZINC001010141213    0.0900
42     H42     1.0396   -1.7204    1.6840 H        1 ZINC001010141213    0.1900
@<TRIPOS>BOND
1     1     2     1
2     1     25    1
3     1     26    1
4     1     27    1
5     2     24    1
6     2     3     2
7     3     4     1
8     3     21    1
9     4     5     2
10    4     6     am
11    6     20    1
12    6     7     1
13    7     8     1
14    7     28    1
15    7     29    1
16    8     9     1
17    8     30    1
18    8     31    1
19    9     10    am
20    9     19    1
21    10    11    2
22    10    12    1
23    12    18    1
24    12    13    2
25    13    14    1
26    14    15    am
27    14    32    1
28    15    16    2
29    15    17    1
30    17    18    2
31    17    33    1
32    18    34    1
33    19    20    1
34    19    35    1
35    19    36    1
36    20    37    1
37    20    38    1
38    21    22    1
39    21    23    1
40    22    39    1
41    22    40    1
42    22    41    1
43    23    24    2
44    24    42    1
@<TRIPOS>SUBSTRUCTURE
1   ZINC001010141213 1     RESIDUE    1   A     ZIN   1
@<TRIPOS>MOLECULE
ZINC000963156778
43	46	1	0	0
SMALL
USER_CHARGES
@<TRIPOS>ATOM
1      C1     -0.0184    1.5028    0.0103 C.3      1 ZINC000963156778   -0.0800
2      C2      0.0021   -0.0041    0.0020 C.2      1 ZINC000963156778    0.0300
3      C3      0.0069   -0.7501   -1.1272 C.2      1 ZINC000963156778   -0.2600
4      C4     -0.0057   -0.2690   -2.5553 C.3      1 ZINC000963156778    0.1300
5      N5      1.3751   -0.0945   -3.0254 N.3      1 ZINC000963156778   -0.5000
6      C6      2.1373    0.8012   -2.1179 C.3      1 ZINC000963156778    0.0600
7      C7      3.3147    1.3130   -2.9752 C.3      1 ZINC000963156778   -0.1700
8      H8      4.3217    1.0242   -2.6740 H        1 ZINC000963156778    0.1200
9      C9      2.8342    1.1820   -4.4351 C.3      1 ZINC000963156778   -0.1700
10     H10     3.4880    0.8090   -5.2235 H        1 ZINC000963156778    0.1200
11     C11     1.4068    0.6021   -4.3371 C.3      1 ZINC000963156778    0.0600
12     C12     3.1095    2.5888   -3.7944 C.3      1 ZINC000963156778    0.1200
13     H13     2.2461    3.2102   -3.5568 H        1 ZINC000963156778    0.1400
14     N14     4.3038    3.3113   -4.2392 N.am     1 ZINC000963156778   -0.7000
15     C15     4.3512    4.6552   -4.1485 C.2      1 ZINC000963156778    0.5100
16     O16     3.4051    5.2663   -3.6987 O.2      1 ZINC000963156778   -0.5000
17     C17     5.5798    5.3984   -4.6060 C.3      1 ZINC000963156778   -0.1300
18     C18     5.3752    6.9000   -4.3959 C.3      1 ZINC000963156778   -0.1100
19     H19     4.4593    7.2332   -4.8841 H        1 ZINC000963156778    0.1300
20     C20     6.5896    7.6921   -4.9217 C.3      1 ZINC000963156778   -0.1600
21     C21     7.1200    8.3886   -3.6876 C.2      1 ZINC000963156778    0.5300
22     O22     8.0829    9.1245   -3.6558 O.2      1 ZINC000963156778   -0.4800
23     N23     6.3572    8.0638   -2.6364 N.am     1 ZINC000963156778   -0.6900
24     C24     5.3429    7.2317   -2.9200 C.2      1 ZINC000963156778    0.5200
25     O25     4.5340    6.8126   -2.1202 O.2      1 ZINC000963156778   -0.4500
26     S26     0.0316   -2.3744   -0.5584 S.3      1 ZINC000963156778    0.4500
27     N27     0.0339   -2.0113    0.9640 N.2      1 ZINC000963156778   -0.2900
28     N28     0.0229   -0.7421    1.0931 N.2      1 ZINC000963156778   -0.2400
29     H29     1.0042    1.8801    0.0026 H        1 ZINC000963156778    0.0900
30     H30    -0.5455    1.8639   -0.8728 H        1 ZINC000963156778    0.0800
31     H31    -0.5286    1.8543    0.9071 H        1 ZINC000963156778    0.0800
32     H32    -0.5128   -1.0030   -3.1816 H        1 ZINC000963156778    0.1000
33     H33    -0.5323    0.6836   -2.6131 H        1 ZINC000963156778    0.0700
34     H34     1.5132    1.6339   -1.7933 H        1 ZINC000963156778    0.0600
35     H35     2.5076    0.2445   -1.2571 H        1 ZINC000963156778    0.0800
36     H36     1.2272   -0.1046   -5.1473 H        1 ZINC000963156778    0.1000
37     H37     0.6685    1.4036   -4.3599 H        1 ZINC000963156778    0.0500
38     H38     5.0604    2.8225   -4.5990 H        1 ZINC000963156778    0.4000
39     H39     6.4421    5.0649   -4.0288 H        1 ZINC000963156778    0.1000
40     H40     5.7517    5.1996   -5.6639 H        1 ZINC000963156778    0.1200
41     H41     7.3395    7.0163   -5.3329 H        1 ZINC000963156778    0.1200
42     H42     6.2775    8.4212   -5.6695 H        1 ZINC000963156778    0.1300
43     H43     6.5228    8.4030   -1.7429 H        1 ZINC000963156778    0.4200
@<TRIPOS>BOND
1     1     2     1
2     1     29    1
3     1     30    1
4     1     31    1
5     2     28    1
6     2     3     2
7     3     4     1
8     3     26    1
9     4     5     1
10    4     32    1
11    4     33    1
12    5     11    1
13    5     6     1
14    6     7     1
15    6     34    1
16    6     35    1
17    7     8     1
18    7     12    1
19    7     9     1
20    9     10    1
21    9     11    1
22    9     12    1
23    11    36    1
24    11    37    1
25    12    13    1
26    12    14    1
27    14    15    am
28    14    38    1
29    15    16    2
30    15    17    1
31    17    18    1
32    17    39    1
33    17    40    1
34    18    19    1
35    18    24    1
36    18    20    1
37    20    21    1
38    20    41    1
39    20    42    1
40    21    22    2
41    21    23    am
42    23    24    am
43    23    43    1
44    24    25    2
45    26    27    1
46    27    28    2
@<TRIPOS>SUBSTRUCTURE
1   ZINC000963156778 1     RESIDUE    1   A     ZIN   1
@<TRIPOS>MOLECULE
ZINC000533037883
55	58	1	0	0
SMALL
USER_CHARGES
@<TRIPOS>ATOM
1      O1      0.0202   -0.0037   -0.0023 O.2      1 ZINC000533037883   -0.5900
2      C2     -0.0144    1.2117    0.0087 C.2      1 ZINC000533037883    0.7100
3      N3      1.1331    1.9186    0.0060 N.am     1 ZINC000533037883   -0.7500
4      C4      2.4205    1.2257    0.1001 C.3      1 ZINC000533037883    0.1400
5      C5      3.5549    2.2520    0.0761 C.3      1 ZINC000533037883   -0.0500
6      C6      4.8792    1.5392    0.1728 C.2      1 ZINC000533037883   -0.2300
7      C7      5.5348    1.2292    1.3152 C.2      1 ZINC000533037883    0.0600
8      N8      6.6795    0.5955    0.9737 N.pl3    1 ZINC000533037883   -0.3200
9      C9      7.6476    0.1053    1.8612 C.ar     1 ZINC000533037883    0.1600
10     C10     7.4711    0.2476    3.2310 C.ar     1 ZINC000533037883   -0.1400
11     C11     8.4267   -0.2364    4.1029 C.ar     1 ZINC000533037883   -0.0900
12     C12     9.5585   -0.8617    3.6129 C.ar     1 ZINC000533037883   -0.1300
13     C13     9.7370   -1.0049    2.2492 C.ar     1 ZINC000533037883   -0.0900
14     C14     8.7820   -0.5285    1.3725 C.ar     1 ZINC000533037883   -0.1200
15     N15     6.7263    0.5150   -0.4241 N.2      1 ZINC000533037883   -0.2900
16     C16     5.6450    1.0759   -0.9027 C.2      1 ZINC000533037883    0.0700
17     N17    -1.2003    1.8520    0.0179 N.am     1 ZINC000533037883   -0.6300
18     C18    -1.2614    3.3160   -0.0901 C.3      1 ZINC000533037883    0.1100
19     C19    -2.1974    3.6865   -1.2449 C.3      1 ZINC000533037883   -0.1400
20     C20    -3.5558    3.0148   -1.0308 C.3      1 ZINC000533037883   -0.1100
21     C21    -3.3792    1.4947   -1.0210 C.3      1 ZINC000533037883   -0.0900
22     H22    -2.9375    1.1736   -1.9643 H        1 ZINC000533037883    0.0800
23     C23    -4.7422    0.8234   -0.8406 C.3      1 ZINC000533037883   -0.1200
24     H24    -5.1968    1.1203    0.1045 H        1 ZINC000533037883    0.0900
25     C25    -5.6817    1.1510   -2.0330 C.3      1 ZINC000533037883   -0.1500
26     C26    -6.5976   -0.0988   -2.0377 C.3      1 ZINC000533037883    0.0500
27     O27    -5.7394   -1.1941   -1.6813 O.3      1 ZINC000533037883   -0.3900
28     C28    -4.6143   -0.7125   -0.9302 C.3      1 ZINC000533037883    0.0500
29     C29    -2.4569    1.0989    0.1302 C.3      1 ZINC000533037883    0.1300
30     H30     1.1066    2.8861   -0.0581 H        1 ZINC000533037883    0.4000
31     H31     2.4616    0.6603    1.0310 H        1 ZINC000533037883    0.0700
32     H32     2.5289    0.5444   -0.7439 H        1 ZINC000533037883    0.0700
33     H33     3.5138    2.8174   -0.8549 H        1 ZINC000533037883    0.0800
34     H34     3.4465    2.9332    0.9200 H        1 ZINC000533037883    0.0800
35     H35     5.2035    1.4489    2.3194 H        1 ZINC000533037883    0.1800
36     H36     6.5877    0.7365    3.6143 H        1 ZINC000533037883    0.1300
37     H37     8.2899   -0.1260    5.1686 H        1 ZINC000533037883    0.1300
38     H38    10.3046   -1.2387    4.2967 H        1 ZINC000533037883    0.1300
39     H39    10.6220   -1.4937    1.8694 H        1 ZINC000533037883    0.1300
40     H40     8.9219   -0.6409    0.3075 H        1 ZINC000533037883    0.1400
41     H41     5.3906    1.1703   -1.9480 H        1 ZINC000533037883    0.1900
42     H42    -1.6449    3.7354    0.8400 H        1 ZINC000533037883    0.0700
43     H43    -0.2643    3.7098   -0.2872 H        1 ZINC000533037883    0.0800
44     H44    -2.3273    4.7683   -1.2751 H        1 ZINC000533037883    0.0800
45     H45    -1.7669    3.3448   -2.1861 H        1 ZINC000533037883    0.0700
46     H46    -3.9745    3.3379   -0.0777 H        1 ZINC000533037883    0.0700
47     H47    -4.2315    3.2967   -1.8383 H        1 ZINC000533037883    0.0700
48     H48    -6.2557    2.0579   -1.8432 H        1 ZINC000533037883    0.0800
49     H49    -5.1212    1.2308   -2.9644 H        1 ZINC000533037883    0.0800
50     H50    -7.3939    0.0129   -1.3018 H        1 ZINC000533037883    0.0600
51     H51    -7.0185   -0.2557   -3.0309 H        1 ZINC000533037883    0.0900
52     H52    -3.6884   -0.9746   -1.4422 H        1 ZINC000533037883    0.0700
53     H53    -4.6223   -1.1490    0.0685 H        1 ZINC000533037883    0.0700
54     H54    -2.2493    0.0299    0.0811 H        1 ZINC000533037883    0.1000
55     H55    -2.9352    1.3371    1.0802 H        1 ZINC000533037883    0.0700
@<TRIPOS>BOND
1     1     2     2
2     2     3     am
3     2     17    am
4     3     4     1
5     3     30    1
6     4     5     1
7     4     31    1
8     4     32    1
9     5     6     1
10    5     33    1
11    5     34    1
12    6     16    1
13    6     7     2
14    7     8     1
15    7     35    1
16    8     9     1
17    8     15    1
18    9     14    ar
19    9     10    ar
20    10    11    ar
21    10    36    1
22    11    12    ar
23    11    37    1
24    12    13    ar
25    12    38    1
26    13    14    ar
27    13    39    1
28    14    40    1
29    15    16    2
30    16    41    1
31    17    29    1
32    17    18    1
33    18    19    1
34    18    42    1
35    18    43    1
36    19    20    1
37    19    44    1
38    19    45    1
39    20    21    1
40    20    46    1
41    20    47    1
42    21    22    1
43    21    23    1
44    21    29    1
45    23    24    1
46    23    28    1
47    23    25    1
48    25    26    1
49    25    48    1
50    25    49    1
51    26    27    1
52    26    50    1
53    26    51    1
54    27    28    1
55    28    52    1
56    28    53    1
57    29    54    1
58    29    55    1
@<TRIPOS>SUBSTRUCTURE
1   ZINC000533037883 1     RESIDUE    1   A     ZIN   1
@<TRIPOS>MOLECULE
ZINC000650955167
57	59	1	0	0
SMALL
USER_CHARGES
@<TRIPOS>ATOM
1      C1     -0.0173    1.4248    0.0099 C.3      1 ZINC000650955167    0.0200
2      O2      0.0021   -0.0041    0.0020 O.3      1 ZINC000650955167   -0.3200
3      C3     -1.2003   -0.6375    0.0101 C.ar     1 ZINC000650955167    0.1300
4      C4     -2.3744    0.1010    0.0195 C.ar     1 ZINC000650955167   -0.2000
5      C5     -3.5956   -0.5454    0.0272 C.ar     1 ZINC000650955167   -0.0800
6      C6     -3.6478   -1.9268    0.0260 C.ar     1 ZINC000650955167   -0.1500
7      C7     -2.4787   -2.6653    0.0172 C.ar     1 ZINC000650955167   -0.0800
8      C8     -1.2554   -2.0239    0.0032 C.ar     1 ZINC000650955167   -0.1100
9      C9      0.0183   -2.8292   -0.0070 C.3      1 ZINC000650955167   -0.0800
10     C10     0.5307   -2.9913    1.4255 C.3      1 ZINC000650955167    0.1800
11     H11    -0.2536   -3.4263    2.0449 H        1 ZINC000650955167    0.0900
12     N12     0.9054   -1.6802    1.9613 N.am     1 ZINC000650955167   -0.7300
13     C13     0.8992   -1.4695    3.2925 C.2      1 ZINC000650955167    0.7400
14     O14     0.5827   -2.3675    4.0487 O.2      1 ZINC000650955167   -0.5800
15     N15     1.2439   -0.2634    3.7854 N.am     1 ZINC000650955167   -0.6700
16     C16     1.6645    1.0292    3.2240 C.3      1 ZINC000650955167    0.1100
17     C17     2.4145    1.2939    4.5368 C.3      1 ZINC000650955167    0.0300
18     N18     2.3090    2.6763    5.0226 N.3      1 ZINC000650955167   -0.5100
19     C19     2.6143    3.6413    3.9449 C.3      1 ZINC000650955167    0.0400
20     C20     3.3026    4.8298    4.6614 C.3      1 ZINC000650955167   -0.1600
21     C21     4.1409    4.1002    5.7438 C.3      1 ZINC000650955167    0.0800
22     H22     5.0824    3.7433    5.3264 H        1 ZINC000650955167    0.0600
23     O23     4.3787    4.9578    6.8619 O.3      1 ZINC000650955167   -0.5600
24     C24     3.2370    2.9149    6.1432 C.3      1 ZINC000650955167    0.0500
25     C25     1.3586    0.3412    5.1212 C.3      1 ZINC000650955167    0.1400
26     C26     1.7528   -3.9118    1.4289 C.3      1 ZINC000650955167   -0.1100
27     C27     2.2652   -4.0738    2.8615 C.3      1 ZINC000650955167   -0.1400
28     C28     1.3615   -5.2810    0.8693 C.3      1 ZINC000650955167   -0.1500
29     H29     1.0053    1.8021    0.0021 H        1 ZINC000650955167    0.1000
30     H30    -0.5445    1.7859   -0.8732 H        1 ZINC000650955167    0.0600
31     H31    -0.5275    1.7763    0.9067 H        1 ZINC000650955167    0.0600
32     H32    -2.3342    1.1802    0.0211 H        1 ZINC000650955167    0.1300
33     H33    -4.5101    0.0291    0.0345 H        1 ZINC000650955167    0.1200
34     H34    -4.6033   -2.4302    0.0324 H        1 ZINC000650955167    0.1200
35     H35    -2.5221   -3.7444    0.0166 H        1 ZINC000650955167    0.1300
36     H36    -0.1766   -3.8119   -0.4365 H        1 ZINC000650955167    0.0900
37     H37     0.7694   -2.3136   -0.6054 H        1 ZINC000650955167    0.0800
38     H38     1.1579   -0.9639    1.3580 H        1 ZINC000650955167    0.4000
39     H39     2.3221    0.9338    2.3600 H        1 ZINC000650955167    0.0700
40     H40     0.8369    1.7170    3.0506 H        1 ZINC000650955167    0.0900
41     H41     3.4335    0.9074    4.5552 H        1 ZINC000650955167    0.0900
42     H42     3.2905    3.1946    3.2159 H        1 ZINC000650955167    0.0500
43     H43     1.6958    3.9712    3.4595 H        1 ZINC000650955167    0.0900
44     H44     3.9457    5.3803    3.9747 H        1 ZINC000650955167    0.0800
45     H45     2.5654    5.4903    5.1179 H        1 ZINC000650955167    0.0900
46     H46     4.8795    5.7562    6.6456 H        1 ZINC000650955167    0.3800
47     H47     2.6751    3.1638    7.0434 H        1 ZINC000650955167    0.0900
48     H48     3.8450    2.0269    6.3166 H        1 ZINC000650955167    0.0700
49     H49     0.4519    0.8480    5.4513 H        1 ZINC000650955167    0.0900
50     H50     1.7576   -0.3413    5.8716 H        1 ZINC000650955167    0.0800
51     H51     2.5371   -3.4768    0.8095 H        1 ZINC000650955167    0.0700
52     H52     1.4809   -4.5089    3.4809 H        1 ZINC000650955167    0.0600
53     H53     3.1358   -4.7297    2.8639 H        1 ZINC000650955167    0.0400
54     H54     2.5439   -3.0984    3.2601 H        1 ZINC000650955167    0.0500
55     H55     0.9964   -5.1656   -0.1512 H        1 ZINC000650955167    0.0600
56     H56     2.2321   -5.9368    0.8718 H        1 ZINC000650955167    0.0600
57     H57     0.5771   -5.7160    1.4888 H        1 ZINC000650955167    0.0600
@<TRIPOS>BOND
1     1     2     1
2     1     29    1
3     1     30    1
4     1     31    1
5     2     3     1
6     3     8     ar
7     3     4     ar
8     4     5     ar
9     4     32    1
10    5     6     ar
11    5     33    1
12    6     7     ar
13    6     34    1
14    7     8     ar
15    7     35    1
16    8     9     1
17    9     10    1
18    9     36    1
19    9     37    1
20    10    11    1
21    10    12    1
22    10    26    1
23    12    13    am
24    12    38    1
25    13    14    2
26    13    15    am
27    15    25    1
28    15    16    1
29    16    17    1
30    16    39    1
31    16    40    1
32    17    18    1
33    17    25    1
34    17    41    1
35    18    24    1
36    18    19    1
37    19    20    1
38    19    42    1
39    19    43    1
40    20    21    1
41    20    44    1
42    20    45    1
43    21    22    1
44    21    23    1
45    21    24    1
46    23    46    1
47    24    47    1
48    24    48    1
49    25    49    1
50    25    50    1
51    26    27    1
52    26    28    1
53    26    51    1
54    27    52    1
55    27    53    1
56    27    54    1
57    28    55    1
58    28    56    1
59    28    57    1
@<TRIPOS>SUBSTRUCTURE
1   ZINC000650955167 1     RESIDUE    1   A     ZIN   1
@<TRIPOS>MOLECULE
ZINC000762020937
57	58	1	0	0
SMALL
USER_CHARGES
@<TRIPOS>ATOM
1      C1     -0.0173    1.4248    0.0099 C.3      1 ZINC000762020937    0.0200
2      O2      0.0021   -0.0041    0.0020 O.3      1 ZINC000762020937   -0.3000
3      C3      0.6062   -0.6075   -1.0564 C.ar     1 ZINC000762020937    0.1100
4      C4      1.1727    0.1587   -2.0618 C.ar     1 ZINC000762020937   -0.1700
5      C5      1.7870   -0.4565   -3.1372 C.ar     1 ZINC000762020937   -0.1000
6      C6      1.8372   -1.8356   -3.2121 C.ar     1 ZINC000762020937   -0.1000
7      C7      2.5075   -2.5009   -4.3865 C.3      1 ZINC000762020937    0.0200
8      C8      3.9665   -2.7158   -4.0766 C.2      1 ZINC000762020937    0.1900
9      N9      4.4977   -3.7746   -3.5141 N.2      1 ZINC000762020937   -0.4700
10     C10     5.8164   -3.5215   -3.4391 C.2      1 ZINC000762020937    0.1600
11     C11     6.8690   -4.4361   -2.8676 C.3      1 ZINC000762020937    0.2600
12     H12     6.4591   -5.4406   -2.7619 H        1 ZINC000762020937    0.1200
13     N13     8.0248   -4.4726   -3.7671 N.am     1 ZINC000762020937   -0.7100
14     C14     8.8452   -5.5420   -3.7672 C.2      1 ZINC000762020937    0.6600
15     O15     8.6262   -6.4758   -3.0212 O.2      1 ZINC000762020937   -0.5600
16     O16     9.9073   -5.5755   -4.5939 O.3      1 ZINC000762020937   -0.3600
17     C17    10.7474   -6.7586   -4.5401 C.3      1 ZINC000762020937    0.1400
18     C18     9.9138   -7.9925   -4.8916 C.3      1 ZINC000762020937   -0.1800
19     C19    11.8945   -6.6156   -5.5424 C.3      1 ZINC000762020937   -0.1400
20     C20    11.3192   -6.9144   -3.1295 C.3      1 ZINC000762020937   -0.1800
21     C21     7.3061   -3.9168   -1.4965 C.3      1 ZINC000762020937   -0.1000
22     C22     6.0991   -3.8786   -0.5571 C.3      1 ZINC000762020937   -0.1400
23     C23     8.3748   -4.8453   -0.9163 C.3      1 ZINC000762020937   -0.1400
24     N24     6.0164   -2.3437   -3.9503 N.2      1 ZINC000762020937   -0.3700
25     O25     4.9671   -1.8662   -4.3277 O.3      1 ZINC000762020937    0.0900
26     C26     1.2740   -2.6064   -2.2116 C.ar     1 ZINC000762020937   -0.1500
27     C27     0.6617   -1.9965   -1.1290 C.ar     1 ZINC000762020937    0.1000
28     O28     0.1074   -2.7530   -0.1443 O.3      1 ZINC000762020937   -0.3100
29     C29     0.1928   -4.1720   -0.2904 C.3      1 ZINC000762020937    0.0200
30     H30     1.0053    1.8021    0.0021 H        1 ZINC000762020937    0.0600
31     H31    -0.5445    1.7859   -0.8732 H        1 ZINC000762020937    0.0600
32     H32    -0.5275    1.7763    0.9067 H        1 ZINC000762020937    0.1000
33     H33     1.1343    1.2366   -2.0060 H        1 ZINC000762020937    0.1400
34     H34     2.2283    0.1421   -3.9204 H        1 ZINC000762020937    0.1300
35     H35     2.0316   -3.4623   -4.5797 H        1 ZINC000762020937    0.1200
36     H36     2.4129   -1.8651   -5.2669 H        1 ZINC000762020937    0.1200
37     H37     8.1996   -3.7272   -4.3627 H        1 ZINC000762020937    0.4100
38     H38     9.5064   -7.8815   -5.8965 H        1 ZINC000762020937    0.0600
39     H39    10.5444   -8.8806   -4.8512 H        1 ZINC000762020937    0.0700
40     H40     9.0966   -8.0943   -4.1775 H        1 ZINC000762020937    0.0900
41     H41    12.4884   -5.7366   -5.2920 H        1 ZINC000762020937    0.0700
42     H42    12.5251   -7.5038   -5.5021 H        1 ZINC000762020937    0.0800
43     H43    11.4871   -6.5047   -6.5473 H        1 ZINC000762020937    0.0700
44     H44    10.5020   -7.0162   -2.4154 H        1 ZINC000762020937    0.0900
45     H45    11.9498   -7.8025   -3.0891 H        1 ZINC000762020937    0.0700
46     H46    11.9131   -6.0354   -2.8791 H        1 ZINC000762020937    0.0600
47     H47     7.7161   -2.9123   -1.6022 H        1 ZINC000762020937    0.0800
48     H48     5.6891   -4.8830   -0.4513 H        1 ZINC000762020937    0.0600
49     H49     6.4105   -3.5086    0.4198 H        1 ZINC000762020937    0.0600
50     H50     5.3378   -3.2171   -0.9704 H        1 ZINC000762020937    0.0500
51     H51     9.2347   -4.8725   -1.5856 H        1 ZINC000762020937    0.0500
52     H52     8.6862   -4.4753    0.0605 H        1 ZINC000762020937    0.0600
53     H53     7.9648   -5.8497   -0.8106 H        1 ZINC000762020937    0.0700
54     H54     1.3146   -3.6839   -2.2726 H        1 ZINC000762020937    0.1400
55     H55     1.2403   -4.4703   -0.3345 H        1 ZINC000762020937    0.0600
56     H56    -0.2869   -4.6545    0.5611 H        1 ZINC000762020937    0.1000
57     H57    -0.3098   -4.4735   -1.2094 H        1 ZINC000762020937    0.0600
@<TRIPOS>BOND
1     1     2     1
2     1     30    1
3     1     31    1
4     1     32    1
5     2     3     1
6     3     27    ar
7     3     4     ar
8     4     5     ar
9     4     33    1
10    5     6     ar
11    5     34    1
12    6     7     1
13    6     26    ar
14    7     8     1
15    7     35    1
16    7     36    1
17    8     25    1
18    8     9     2
19    9     10    1
20    10    11    1
21    10    24    2
22    11    12    1
23    11    13    1
24    11    21    1
25    13    14    am
26    13    37    1
27    14    15    2
28    14    16    1
29    16    17    1
30    17    18    1
31    17    19    1
32    17    20    1
33    18    38    1
34    18    39    1
35    18    40    1
36    19    41    1
37    19    42    1
38    19    43    1
39    20    44    1
40    20    45    1
41    20    46    1
42    21    22    1
43    21    23    1
44    21    47    1
45    22    48    1
46    22    49    1
47    22    50    1
48    23    51    1
49    23    52    1
50    23    53    1
51    24    25    1
52    26    27    ar
53    26    54    1
54    27    28    1
55    28    29    1
56    29    55    1
57    29    56    1
58    29    57    1
@<TRIPOS>SUBSTRUCTURE
1   ZINC000762020937 1     RESIDUE    1   A     ZIN   1
@<TRIPOS>MOLECULE
ZINC000506566356
46	48	1	0	0
SMALL
USER_CHARGES
@<TRIPOS>ATOM
1      O1      0.0024   -0.0029   -0.0203 O.2      1 ZINC000506566356   -0.5100
2      C2     -0.0145    1.2106   -0.0100 C.2      1 ZINC000506566356    0.5100
3      N3      1.1430    1.9008   -0.0241 N.am     1 ZINC000506566356   -0.7000
4      C4      2.4216    1.1863   -0.0518 C.3      1 ZINC000506566356    0.1200
5      C5      3.5704    2.1968   -0.0631 C.3      1 ZINC000506566356   -0.0900
6      C6      4.8857    1.4618   -0.0917 C.ar     1 ZINC000506566356   -0.0700
7      C7      5.5064    1.1099    1.0921 C.ar     1 ZINC000506566356   -0.1100
8      C8      6.7129    0.4351    1.0667 C.ar     1 ZINC000506566356   -0.1000
9      C9      7.2992    0.1125   -0.1424 C.ar     1 ZINC000506566356   -0.1100
10     C10     6.6783    0.4646   -1.3278 C.ar     1 ZINC000506566356   -0.0300
11     Cl11    7.4139    0.0592   -2.8471 Cl       1 ZINC000506566356   -0.0700
12     C12     5.4684    1.1346   -1.3018 C.ar     1 ZINC000506566356   -0.1000
13     C13    -1.3180    1.9390    0.0121 C.2      1 ZINC000506566356    0.5100
14     O14    -1.3349    3.1527    0.0224 O.2      1 ZINC000506566356   -0.5000
15     N15    -2.4756    1.2488    0.0206 N.am     1 ZINC000506566356   -0.6300
16     C16    -3.6935    1.9271    0.1356 C.ar     1 ZINC000506566356    0.1100
17     C17    -3.8520    3.1762   -0.4474 C.ar     1 ZINC000506566356   -0.0800
18     C18    -5.0564    3.8443   -0.3322 C.ar     1 ZINC000506566356   -0.1400
19     C19    -6.1051    3.2713    0.3630 C.ar     1 ZINC000506566356   -0.0900
20     C20    -5.9549    2.0270    0.9473 C.ar     1 ZINC000506566356   -0.1900
21     C21    -4.7534    1.3476    0.8316 C.ar     1 ZINC000506566356    0.1200
22     O22    -4.6041    0.1242    1.4055 O.3      1 ZINC000506566356   -0.3100
23     C23    -5.7284   -0.4017    2.1137 C.3      1 ZINC000506566356    0.1400
24     C24    -5.3790   -1.7551    2.6770 C.2      1 ZINC000506566356    0.0500
25     C25    -4.1797   -2.3202    2.5093 C.2      1 ZINC000506566356   -0.2300
26     S26    -4.1986   -3.8837    3.3216 S.3      1 ZINC000506566356    0.1400
27     C27    -5.8173   -3.6219    3.8060 C.2      1 ZINC000506566356    0.0200
28     N28    -6.2293   -2.4758    3.3800 N.2      1 ZINC000506566356   -0.4700
29     H29     1.1295    2.8707   -0.0158 H        1 ZINC000506566356    0.4200
30     H30     2.5033    0.5532    0.8317 H        1 ZINC000506566356    0.0800
31     H31     2.4729    0.5679   -0.9479 H        1 ZINC000506566356    0.0800
32     H32     3.4887    2.8299   -0.9467 H        1 ZINC000506566356    0.0900
33     H33     3.5191    2.8152    0.8330 H        1 ZINC000506566356    0.0900
34     H34     5.0489    1.3624    2.0373 H        1 ZINC000506566356    0.1300
35     H35     7.1974    0.1604    1.9920 H        1 ZINC000506566356    0.1300
36     H36     8.2420   -0.4139   -0.1621 H        1 ZINC000506566356    0.1300
37     H37     4.9833    1.4096   -2.2267 H        1 ZINC000506566356    0.1300
38     H38    -2.4642    0.2816   -0.0531 H        1 ZINC000506566356    0.4300
39     H39    -3.0344    3.6263   -0.9908 H        1 ZINC000506566356    0.1500
40     H40    -5.1785    4.8166   -0.7861 H        1 ZINC000506566356    0.1300
41     H41    -7.0444    3.7972    0.4503 H        1 ZINC000506566356    0.1300
42     H42    -6.7761    1.5828    1.4903 H        1 ZINC000506566356    0.1400
43     H43    -5.9932    0.2733    2.9276 H        1 ZINC000506566356    0.0900
44     H44    -6.5738   -0.4989    1.4326 H        1 ZINC000506566356    0.0900
45     H45    -3.3461   -1.8940    1.9710 H        1 ZINC000506566356    0.1800
46     H46    -6.4079   -4.3138    4.3882 H        1 ZINC000506566356    0.2100
@<TRIPOS>BOND
1     1     2     2
2     2     3     am
3     2     13    1
4     3     4     1
5     3     29    1
6     4     5     1
7     4     30    1
8     4     31    1
9     5     6     1
10    5     32    1
11    5     33    1
12    6     12    ar
13    6     7     ar
14    7     8     ar
15    7     34    1
16    8     9     ar
17    8     35    1
18    9     10    ar
19    9     36    1
20    10    11    1
21    10    12    ar
22    12    37    1
23    13    14    2
24    13    15    am
25    15    16    1
26    15    38    1
27    16    21    ar
28    16    17    ar
29    17    18    ar
30    17    39    1
31    18    19    ar
32    18    40    1
33    19    20    ar
34    19    41    1
35    20    21    ar
36    20    42    1
37    21    22    1
38    22    23    1
39    23    24    1
40    23    43    1
41    23    44    1
42    24    28    1
43    24    25    2
44    25    26    1
45    25    45    1
46    26    27    1
47    27    28    2
48    27    46    1
@<TRIPOS>SUBSTRUCTURE
1   ZINC000506566356 1     RESIDUE    1   A     ZIN   1
@<TRIPOS>MOLECULE
ZINC000477589488
57	61	1	0	0
SMALL
USER_CHARGES
@<TRIPOS>ATOM
1      O1      0.0864   -0.1311   -0.1225 O.2      1 ZINC000477589488   -0.5800
2      C2      0.0088    1.0787   -0.2165 C.2      1 ZINC000477589488    0.7100
3      N3      1.1262    1.8310   -0.1745 N.am     1 ZINC000477589488   -0.7400
4      C4      2.4221    1.2033    0.0955 C.3      1 ZINC000477589488    0.2500
5      H5      2.4703    0.2380   -0.4085 H        1 ZINC000477589488    0.1100
6      C6      2.5838    1.0033    1.5804 C.ar     1 ZINC000477589488   -0.0900
7      C7      2.1517    1.9782    2.4601 C.ar     1 ZINC000477589488   -0.1000
8      C8      2.3000    1.7948    3.8222 C.ar     1 ZINC000477589488   -0.1200
9      C9      2.8799    0.6363    4.3046 C.ar     1 ZINC000477589488   -0.1200
10     C10     3.3111   -0.3389    3.4249 C.ar     1 ZINC000477589488   -0.1200
11     C11     3.1589   -0.1574    2.0629 C.ar     1 ZINC000477589488   -0.1000
12     C12     3.5269    2.0921   -0.4149 C.ar     1 ZINC000477589488   -0.0700
13     C13     4.7491    1.5342   -0.8261 C.ar     1 ZINC000477589488   -0.0400
14     C14     4.9728    0.1477   -0.7740 C.ar     1 ZINC000477589488   -0.1100
15     C15     6.1692   -0.3571   -1.1810 C.ar     1 ZINC000477589488   -0.1100
16     C16     7.1797    0.4809   -1.6496 C.ar     1 ZINC000477589488   -0.1100
17     C17     6.9992    1.8282   -1.7138 C.ar     1 ZINC000477589488   -0.1100
18     C18     5.7765    2.3864   -1.3031 C.ar     1 ZINC000477589488   -0.0500
19     C19     5.5529    3.7725   -1.3553 C.ar     1 ZINC000477589488   -0.1000
20     C20     4.3556    4.2773   -0.9494 C.ar     1 ZINC000477589488   -0.1100
21     C21     3.3439    3.4392   -0.4852 C.ar     1 ZINC000477589488   -0.1100
22     N22    -1.1943    1.6669   -0.3683 N.am     1 ZINC000477589488   -0.6300
23     C23    -2.4337    0.8773   -0.3080 C.3      1 ZINC000477589488    0.1300
24     C24    -3.3884    1.5451    0.6874 C.3      1 ZINC000477589488    0.0500
25     N25    -3.5678    2.9555    0.3180 N.3      1 ZINC000477589488   -0.4700
26     C26    -4.5511    3.5538    1.0982 C.ar     1 ZINC000477589488    0.2500
27     C27    -4.8810    4.8944    0.9030 C.ar     1 ZINC000477589488   -0.1300
28     C28    -5.8678    5.4434    1.7067 C.ar     1 ZINC000477589488   -0.0900
29     C29    -6.4663    4.6262    2.6552 C.ar     1 ZINC000477589488    0.0200
30     N30    -6.0921    3.3675    2.7716 N.ar     1 ZINC000477589488   -0.2200
31     N31    -5.1830    2.8510    2.0272 N.ar     1 ZINC000477589488   -0.2800
32     C32    -2.3018    3.6952    0.4081 C.3      1 ZINC000477589488    0.0400
33     C33    -1.3029    3.1164   -0.5927 C.3      1 ZINC000477589488    0.1200
34     H34     1.0725    2.7880   -0.3231 H        1 ZINC000477589488    0.3900
35     H35     1.6987    2.8832    2.0833 H        1 ZINC000477589488    0.1100
36     H36     1.9631    2.5567    4.5095 H        1 ZINC000477589488    0.1200
37     H37     2.9964    0.4934    5.3687 H        1 ZINC000477589488    0.1200
38     H38     3.7645   -1.2438    3.8017 H        1 ZINC000477589488    0.1200
39     H39     3.4958   -0.9193    1.3756 H        1 ZINC000477589488    0.1200
40     H40     4.1993   -0.5138   -0.4126 H        1 ZINC000477589488    0.1300
41     H41     6.3385   -1.4229   -1.1400 H        1 ZINC000477589488    0.1300
42     H42     8.1201    0.0545   -1.9662 H        1 ZINC000477589488    0.1300
43     H43     7.7915    2.4652   -2.0785 H        1 ZINC000477589488    0.1300
44     H44     6.3270    4.4340   -1.7152 H        1 ZINC000477589488    0.1300
45     H45     4.1865    5.3432   -0.9902 H        1 ZINC000477589488    0.1300
46     H46     2.4031    3.8654   -0.1695 H        1 ZINC000477589488    0.1200
47     H47    -2.8963    0.8461   -1.2945 H        1 ZINC000477589488    0.0800
48     H48    -2.2068   -0.1354    0.0253 H        1 ZINC000477589488    0.1100
49     H49    -4.3526    1.0373    0.6633 H        1 ZINC000477589488    0.1000
50     H50    -2.9689    1.4826    1.6915 H        1 ZINC000477589488    0.0600
51     H51    -4.3829    5.4865    0.1495 H        1 ZINC000477589488    0.1500
52     H52    -6.1620    6.4769    1.5982 H        1 ZINC000477589488    0.1500
53     H53    -7.2385    5.0215    3.2984 H        1 ZINC000477589488    0.1700
54     H54    -2.4780    4.7467    0.1814 H        1 ZINC000477589488    0.1000
55     H55    -1.8975    3.6028    1.4161 H        1 ZINC000477589488    0.0600
56     H56    -0.3290    3.5846   -0.4502 H        1 ZINC000477589488    0.0800
57     H57    -1.6548    3.2984   -1.6081 H        1 ZINC000477589488    0.0900
@<TRIPOS>BOND
1     1     2     2
2     2     3     am
3     2     22    am
4     3     4     1
5     3     34    1
6     4     5     1
7     4     6     1
8     4     12    1
9     6     11    ar
10    6     7     ar
11    7     8     ar
12    7     35    1
13    8     9     ar
14    8     36    1
15    9     10    ar
16    9     37    1
17    10    11    ar
18    10    38    1
19    11    39    1
20    12    21    ar
21    12    13    ar
22    13    18    ar
23    13    14    ar
24    14    15    ar
25    14    40    1
26    15    16    ar
27    15    41    1
28    16    17    ar
29    16    42    1
30    17    18    ar
31    17    43    1
32    18    19    ar
33    19    20    ar
34    19    44    1
35    20    21    ar
36    20    45    1
37    21    46    1
38    22    33    1
39    22    23    1
40    23    24    1
41    23    47    1
42    23    48    1
43    24    25    1
44    24    49    1
45    24    50    1
46    25    26    1
47    25    32    1
48    26    31    ar
49    26    27    ar
50    27    28    ar
51    27    51    1
52    28    29    ar
53    28    52    1
54    29    30    ar
55    29    53    1
56    30    31    ar
57    32    33    1
58    32    54    1
59    32    55    1
60    33    56    1
61    33    57    1
@<TRIPOS>SUBSTRUCTURE
1   ZINC000477589488 1     RESIDUE    1   A     ZIN   1
@<TRIPOS>MOLECULE
ZINC000965273005
51	54	1	0	0
SMALL
USER_CHARGES
@<TRIPOS>ATOM
1      C1     -2.0193    0.5910    0.4877 C.3      1 ZINC000965273005   -0.1200
2      C2     -0.9537   -0.4434    0.2320 C.ar     1 ZINC000965273005   -0.0300
3      C3     -0.9900   -1.2034   -0.9186 C.ar     1 ZINC000965273005   -0.1200
4      C4     -0.0123   -2.1537   -1.1549 C.ar     1 ZINC000965273005   -0.0900
5      C5      1.0075   -2.3479   -0.2406 C.ar     1 ZINC000965273005   -0.1300
6      C6      1.0556   -1.5944    0.9143 C.ar     1 ZINC000965273005   -0.0900
7      C7      0.0756   -0.6307    1.1562 C.ar     1 ZINC000965273005   -0.1300
8      C8      0.1208    0.1803    2.3916 C.2      1 ZINC000965273005    0.5800
9      O9     -0.0102    1.3872    2.3314 O.2      1 ZINC000965273005   -0.5200
10     N10     0.3073   -0.4187    3.5844 N.am     1 ZINC000965273005   -0.6100
11     C11     0.2670    0.2504    4.8975 C.3      1 ZINC000965273005    0.0900
12     C12    -0.0861   -0.8727    5.9042 C.3      1 ZINC000965273005    0.1500
13     H13     0.2716   -0.6276    6.9043 H        1 ZINC000965273005    0.1200
14     N14    -1.5275   -1.1345    5.9147 N.am     1 ZINC000965273005   -0.7100
15     C15    -2.3386   -0.4079    6.7088 C.2      1 ZINC000965273005    0.6000
16     O16    -1.8740    0.4650    7.4167 O.2      1 ZINC000965273005   -0.5400
17     C17    -3.7891   -0.6714    6.7194 C.2      1 ZINC000965273005   -0.2800
18     C18    -4.4536   -1.6279    5.9785 C.2      1 ZINC000965273005    0.1000
19     N19    -5.7584   -1.5360    6.2813 N.pl3    1 ZINC000965273005   -0.3600
20     C20    -6.8276   -2.3667    5.7219 C.3      1 ZINC000965273005    0.1000
21     N21    -5.9247   -0.5134    7.2219 N.2      1 ZINC000965273005   -0.3000
22     C22    -4.7586    0.0039    7.4943 C.2      1 ZINC000965273005    0.1700
23     C23    -4.4932    1.1311    8.4586 C.3      1 ZINC000965273005   -0.0800
24     C24    -5.7042    1.8659    9.0370 C.3      1 ZINC000965273005   -0.1700
25     C25    -4.8906    0.9183    9.9207 C.3      1 ZINC000965273005   -0.1600
26     C26     0.6944   -2.0768    5.3139 C.3      1 ZINC000965273005    0.0900
27     H27     1.7366   -2.0544    5.6325 H        1 ZINC000965273005    0.0900
28     O28     0.0794   -3.3109    5.6891 O.3      1 ZINC000965273005   -0.5500
29     C29     0.5783   -1.8487    3.7922 C.3      1 ZINC000965273005    0.0600
30     H30    -1.6690    1.5654    0.1472 H        1 ZINC000965273005    0.0800
31     H31    -2.9255    0.3209   -0.0544 H        1 ZINC000965273005    0.0700
32     H32    -2.2342    0.6350    1.5554 H        1 ZINC000965273005    0.0700
33     H33    -1.7835   -1.0566   -1.6364 H        1 ZINC000965273005    0.1300
34     H34    -0.0457   -2.7465   -2.0570 H        1 ZINC000965273005    0.1300
35     H35     1.7676   -3.0912   -0.4310 H        1 ZINC000965273005    0.1300
36     H36     1.8521   -1.7473    1.6275 H        1 ZINC000965273005    0.1300
37     H37     1.2403    0.6801    5.1344 H        1 ZINC000965273005    0.0900
38     H38    -0.5019    1.0230    4.9061 H        1 ZINC000965273005    0.0900
39     H39    -1.8981   -1.8308    5.3501 H        1 ZINC000965273005    0.4000
40     H40    -4.0063   -2.3222    5.2826 H        1 ZINC000965273005    0.1800
41     H41    -6.9639   -3.2512    6.3441 H        1 ZINC000965273005    0.0800
42     H42    -7.7553   -1.7951    5.6947 H        1 ZINC000965273005    0.1000
43     H43    -6.5591   -2.6718    4.7105 H        1 ZINC000965273005    0.0900
44     H44    -3.5956    1.7172    8.2613 H        1 ZINC000965273005    0.1400
45     H45    -5.6036    2.9357    9.2201 H        1 ZINC000965273005    0.1000
46     H46    -6.6929    1.5339    8.7200 H        1 ZINC000965273005    0.1000
47     H47    -5.3440   -0.0370   10.1851 H        1 ZINC000965273005    0.0900
48     H48    -4.2547    1.3647   10.6852 H        1 ZINC000965273005    0.1000
49     H49     0.5290   -4.0949    5.3453 H        1 ZINC000965273005    0.3900
50     H50    -0.2378   -2.4481    3.3887 H        1 ZINC000965273005    0.0800
51     H51     1.5152   -2.1180    3.3044 H        1 ZINC000965273005    0.0800
@<TRIPOS>BOND
1     1     2     1
2     1     30    1
3     1     31    1
4     1     32    1
5     2     7     ar
6     2     3     ar
7     3     4     ar
8     3     33    1
9     4     5     ar
10    4     34    1
11    5     6     ar
12    5     35    1
13    6     7     ar
14    6     36    1
15    7     8     1
16    8     9     2
17    8     10    am
18    10    29    1
19    10    11    1
20    11    12    1
21    11    37    1
22    11    38    1
23    12    13    1
24    12    14    1
25    12    26    1
26    14    15    am
27    14    39    1
28    15    16    2
29    15    17    1
30    17    22    1
31    17    18    2
32    18    19    1
33    18    40    1
34    19    20    1
35    19    21    1
36    20    41    1
37    20    42    1
38    20    43    1
39    21    22    2
40    22    23    1
41    23    25    1
42    23    24    1
43    23    44    1
44    24    25    1
45    24    45    1
46    24    46    1
47    25    47    1
48    25    48    1
49    26    27    1
50    26    28    1
51    26    29    1
52    28    49    1
53    29    50    1
54    29    51    1
@<TRIPOS>SUBSTRUCTURE
1   ZINC000965273005 1     RESIDUE    1   A     ZIN   1
@<TRIPOS>MOLECULE
ZINC001707804910
48	51	1	0	0
SMALL
USER_CHARGES
@<TRIPOS>ATOM
1      C1     -0.9525  -10.0166    3.6903 C.3      1 ZINC001707804910   -0.0700
2      C2     -0.5000   -8.5952    3.9044 C.2      1 ZINC001707804910    0.0700
3      N3      0.0409   -8.1185    4.9962 N.2      1 ZINC001707804910   -0.2800
4      N4      0.3173   -6.7606    4.7909 N.pl3    1 ZINC001707804910   -0.3700
5      C5      0.9261   -5.8485    5.7623 C.3      1 ZINC001707804910    0.0900
6      C6     -0.0762   -6.4411    3.5402 C.2      1 ZINC001707804910    0.0500
7      C7      0.0319   -5.0839    2.8942 C.3      1 ZINC001707804910    0.1800
8      N8     -1.3076   -4.5154    2.7252 N.pl3    1 ZINC001707804910   -0.4600
9      C9     -1.9386   -3.6287    3.5531 C.2      1 ZINC001707804910    0.1900
10     C10    -1.3826   -3.0443    4.8261 C.3      1 ZINC001707804910   -0.0700
11     N11    -3.1092   -3.3821    3.0370 N.2      1 ZINC001707804910   -0.2800
12     N12    -3.2597   -4.0476    1.9477 N.2      1 ZINC001707804910   -0.3000
13     C13    -2.1822   -4.7563    1.7059 C.2      1 ZINC001707804910    0.3500
14     N14    -1.9750   -5.5973    0.6241 N.3      1 ZINC001707804910   -0.4600
15     C15    -1.5507   -4.8372   -0.5605 C.3      1 ZINC001707804910    0.0200
16     C16    -1.2759   -5.8082   -1.7118 C.3      1 ZINC001707804910    0.0700
17     O17    -2.4483   -6.5886   -1.9606 O.3      1 ZINC001707804910   -0.3600
18     C18    -2.8892   -7.3424   -0.8281 C.3      1 ZINC001707804910    0.2000
19     H19    -2.1105   -8.0460   -0.5336 H        1 ZINC001707804910    0.1000
20     C20    -4.1427   -8.0993   -1.1844 C.2      1 ZINC001707804910    0.1600
21     N21    -5.1690   -7.6286   -1.8342 N.2      1 ZINC001707804910   -0.2500
22     N22    -6.0555   -8.5527   -1.9594 N.2      1 ZINC001707804910   -0.2900
23     C23    -5.6249   -9.6443   -1.3937 C.2      1 ZINC001707804910    0.1700
24     C24    -6.3587  -10.9584   -1.3172 C.3      1 ZINC001707804910   -0.0600
25     O25    -4.4044   -9.3850   -0.8952 O.3      1 ZINC001707804910   -0.2200
26     C26    -3.1802   -6.3869    0.3322 C.3      1 ZINC001707804910    0.0400
27     C27    -0.5802   -7.5591    2.9682 C.2      1 ZINC001707804910   -0.2300
28     H28    -0.1272  -10.6039    3.2879 H        1 ZINC001707804910    0.0800
29     H29    -1.2724  -10.4432    4.6410 H        1 ZINC001707804910    0.0700
30     H30    -1.7853  -10.0308    2.9872 H        1 ZINC001707804910    0.0800
31     H31     2.0111   -5.9449    5.7209 H        1 ZINC001707804910    0.0800
32     H32     0.6432   -4.8230    5.5247 H        1 ZINC001707804910    0.0900
33     H33     0.5771   -6.0989    6.7641 H        1 ZINC001707804910    0.0900
34     H34     0.6284   -4.4268    3.5271 H        1 ZINC001707804910    0.1100
35     H35     0.5104   -5.1824    1.9198 H        1 ZINC001707804910    0.1200
36     H36    -0.7614   -2.1807    4.5884 H        1 ZINC001707804910    0.0900
37     H37    -2.2036   -2.7344    5.4725 H        1 ZINC001707804910    0.1000
38     H38    -0.7806   -3.7951    5.3380 H        1 ZINC001707804910    0.0700
39     H39    -2.3401   -4.1435   -0.8499 H        1 ZINC001707804910    0.0700
40     H40    -0.6426   -4.2802   -0.3295 H        1 ZINC001707804910    0.0900
41     H41    -1.0163   -5.2454   -2.6085 H        1 ZINC001707804910    0.1200
42     H42    -0.4503   -6.4671   -1.4431 H        1 ZINC001707804910    0.0700
43     H43    -6.1074  -11.5660   -2.1866 H        1 ZINC001707804910    0.1000
44     H44    -6.0666  -11.4854   -0.4089 H        1 ZINC001707804910    0.1000
45     H45    -7.4329  -10.7743   -1.3009 H        1 ZINC001707804910    0.1100
46     H46    -3.4617   -6.9613    1.2148 H        1 ZINC001707804910    0.1000
47     H47    -3.9958   -5.7181    0.0571 H        1 ZINC001707804910    0.0800
48     H48    -0.9797   -7.6362    1.9678 H        1 ZINC001707804910    0.1500
@<TRIPOS>BOND
1     1     2     1
2     1     28    1
3     1     29    1
4     1     30    1
5     2     27    1
6     2     3     2
7     3     4     1
8     4     5     1
9     4     6     1
10    5     31    1
11    5     32    1
12    5     33    1
13    6     7     1
14    6     27    2
15    7     8     1
16    7     34    1
17    7     35    1
18    8     13    1
19    8     9     1
20    9     10    1
21    9     11    2
22    10    36    1
23    10    37    1
24    10    38    1
25    11    12    1
26    12    13    2
27    13    14    1
28    14    26    1
29    14    15    1
30    15    16    1
31    15    39    1
32    15    40    1
33    16    17    1
34    16    41    1
35    16    42    1
36    17    18    1
37    18    19    1
38    18    20    1
39    18    26    1
40    20    25    1
41    20    21    2
42    21    22    1
43    22    23    2
44    23    24    1
45    23    25    1
46    24    43    1
47    24    44    1
48    24    45    1
49    26    46    1
50    26    47    1
51    27    48    1
@<TRIPOS>SUBSTRUCTURE
1   ZINC001707804910 1     RESIDUE    1   A     ZIN   1
@<TRIPOS>MOLECULE
ZINC000265724350
46	47	1	0	0
SMALL
USER_CHARGES
@<TRIPOS>ATOM
1      C1     -0.0178    1.4608    0.0101 C.3      1 ZINC000265724350    0.0800
2      N2      0.0021   -0.0041    0.0020 N.am     1 ZINC000265724350   -1.1100
3      S3     -1.4206   -0.8515    0.0111 S.o2     1 ZINC000265724350    2.7200
4      O4     -1.0684   -2.2274   -0.0344 O.2      1 ZINC000265724350   -0.9300
5      O5     -2.2174   -0.2869    1.0433 O.2      1 ZINC000265724350   -0.9300
6      C6     -2.2472   -0.4991   -1.5046 C.2      1 ZINC000265724350   -0.5600
7      C7     -2.1155   -1.1979   -2.6537 C.2      1 ZINC000265724350   -0.0900
8      C8     -2.9435   -0.5849   -3.6071 C.2      1 ZINC000265724350   -0.1400
9      C9     -3.5459    0.4700   -2.9836 C.2      1 ZINC000265724350   -0.0200
10     C10    -4.4998    1.4017   -3.5943 C.2      1 ZINC000265724350    0.6000
11     O11    -4.8187    1.2682   -4.7612 O.2      1 ZINC000265724350   -0.5000
12     N12    -5.0233    2.4057   -2.8633 N.am     1 ZINC000265724350   -0.7100
13     C13    -5.9761    3.3364   -3.4734 C.3      1 ZINC000265724350    0.1200
14     C14    -6.4131    4.3721   -2.4355 C.3      1 ZINC000265724350   -0.1100
15     H15    -6.8062    3.8619   -1.5562 H        1 ZINC000265724350    0.0800
16     C16    -5.2113    5.2292   -2.0331 C.3      1 ZINC000265724350   -0.1400
17     C17    -7.5000    5.2670   -3.0344 C.3      1 ZINC000265724350    0.0600
18     N18    -8.0040    6.1827   -2.0022 N.3      1 ZINC000265724350   -0.5300
19     C19    -8.2761    5.4650   -0.7484 C.3      1 ZINC000265724350    0.0100
20     C20    -8.7411    6.4638    0.3146 C.3      1 ZINC000265724350    0.0600
21     O21    -9.8901    7.1654   -0.1679 O.3      1 ZINC000265724350   -0.3900
22     C22    -9.6606    7.8762   -1.3875 C.3      1 ZINC000265724350    0.0600
23     C23    -9.2049    6.8917   -2.4677 C.3      1 ZINC000265724350    0.0200
24     O24    -3.1140    0.5018   -1.7059 O.3      1 ZINC000265724350   -0.1100
25     H25     1.0048    1.8381    0.0023 H        1 ZINC000265724350    0.0900
26     H26    -0.5450    1.8219   -0.8730 H        1 ZINC000265724350    0.0600
27     H27    -0.5280    1.8123    0.9069 H        1 ZINC000265724350    0.0700
28     H28     0.8486   -0.4776   -0.0086 H        1 ZINC000265724350    0.4200
29     H29    -1.4907   -2.0649   -2.8093 H        1 ZINC000265724350    0.1800
30     H30    -3.0779   -0.8887   -4.6347 H        1 ZINC000265724350    0.1700
31     H31    -4.7691    2.5121   -1.9333 H        1 ZINC000265724350    0.4100
32     H32    -5.5021    3.8424   -4.3144 H        1 ZINC000265724350    0.0800
33     H33    -6.8478    2.7849   -3.8257 H        1 ZINC000265724350    0.0700
34     H34    -4.4369    4.5917   -1.6064 H        1 ZINC000265724350    0.0500
35     H35    -4.8182    5.7395   -2.9124 H        1 ZINC000265724350    0.0600
36     H36    -5.5226    5.9671   -1.2937 H        1 ZINC000265724350    0.0700
37     H37    -7.0820    5.8440   -3.8592 H        1 ZINC000265724350    0.0800
38     H38    -8.3185    4.6480   -3.4020 H        1 ZINC000265724350    0.0400
39     H39    -9.0561    4.7223   -0.9160 H        1 ZINC000265724350    0.0400
40     H40    -7.3671    4.9686   -0.4085 H        1 ZINC000265724350    0.0900
41     H41    -8.9985    5.9289    1.2288 H        1 ZINC000265724350    0.1000
42     H42    -7.9408    7.1745    0.5211 H        1 ZINC000265724350    0.0600
43     H43   -10.5830    8.3628   -1.7043 H        1 ZINC000265724350    0.1000
44     H44    -8.8871    8.6280   -1.2305 H        1 ZINC000265724350    0.0600
45     H45    -8.9739    7.4367   -3.3829 H        1 ZINC000265724350    0.0900
46     H46    -9.9998    6.1718   -2.6628 H        1 ZINC000265724350    0.0400
@<TRIPOS>BOND
1     1     2     1
2     1     25    1
3     1     26    1
4     1     27    1
5     2     3     am
6     2     28    1
7     3     4     2
8     3     5     2
9     3     6     1
10    6     24    1
11    6     7     2
12    7     8     1
13    7     29    1
14    8     9     2
15    8     30    1
16    9     10    1
17    9     24    1
18    10    11    2
19    10    12    am
20    12    13    1
21    12    31    1
22    13    14    1
23    13    32    1
24    13    33    1
25    14    15    1
26    14    16    1
27    14    17    1
28    16    34    1
29    16    35    1
30    16    36    1
31    17    18    1
32    17    37    1
33    17    38    1
34    18    23    1
35    18    19    1
36    19    20    1
37    19    39    1
38    19    40    1
39    20    21    1
40    20    41    1
41    20    42    1
42    21    22    1
43    22    23    1
44    22    43    1
45    22    44    1
46    23    45    1
47    23    46    1
@<TRIPOS>SUBSTRUCTURE
1   ZINC000265724350 1     RESIDUE    1   A     ZIN   1
@<TRIPOS>MOLECULE
ZINC000816269301
40	42	1	0	0
SMALL
USER_CHARGES
@<TRIPOS>ATOM
1      C1     -0.0178    1.4608    0.0101 C.3      1 ZINC000816269301    0.1000
2      N2      0.0021   -0.0041    0.0020 N.pl3    1 ZINC000816269301   -0.4000
3      N3      0.0088   -0.8350   -1.1275 N.2      1 ZINC000816269301    0.0000
4      N4      0.0270   -2.0662   -0.7553 N.2      1 ZINC000816269301   -0.2000
5      C5      0.0335   -2.1443    0.5968 C.ar     1 ZINC000816269301   -0.0300
6      C6      0.0517   -3.2187    1.4901 C.ar     1 ZINC000816269301    0.0500
7      C7      0.0539   -2.9730    2.8580 C.ar     1 ZINC000816269301   -0.1400
8      C8      0.0735   -4.1025    3.8077 C.2      1 ZINC000816269301    0.5200
9      O9      0.0878   -5.2444    3.3933 O.2      1 ZINC000816269301   -0.5000
10     O10     0.0757   -3.8673    5.1343 O.3      1 ZINC000816269301   -0.3500
11     C11     0.0954   -5.0259    6.0092 C.3      1 ZINC000816269301    0.0500
12     C12     0.0949   -4.5637    7.4677 C.3      1 ZINC000816269301    0.1200
13     N13    -1.1654   -3.8773    7.7620 N.am     1 ZINC000816269301   -0.7200
14     C14    -1.3906   -3.3809    8.9947 C.2      1 ZINC000816269301    0.5600
15     O15    -0.5478   -3.5028    9.8622 O.2      1 ZINC000816269301   -0.5300
16     C16    -2.6619   -2.6885    9.2915 C.ar     1 ZINC000816269301   -0.1300
17     C17    -3.6340   -2.5520    8.2988 C.ar     1 ZINC000816269301   -0.0700
18     C18    -4.8184   -1.9048    8.5817 C.ar     1 ZINC000816269301   -0.1200
19     C19    -5.0445   -1.3907    9.8479 C.ar     1 ZINC000816269301   -0.0100
20     Cl20   -6.5382   -0.5777   10.1968 Cl       1 ZINC000816269301   -0.0600
21     C21    -4.0838   -1.5230   10.8369 C.ar     1 ZINC000816269301   -0.1200
22     C22    -2.8980   -2.1732   10.5675 C.ar     1 ZINC000816269301   -0.0500
23     C23     0.0379   -1.6556    3.3395 C.ar     1 ZINC000816269301   -0.0200
24     C24     0.0201   -0.6038    2.4731 C.ar     1 ZINC000816269301   -0.1300
25     C25     0.0237   -0.8293    1.0986 C.ar     1 ZINC000816269301    0.1100
26     H26     1.0048    1.8381    0.0023 H        1 ZINC000816269301    0.0900
27     H27    -0.5450    1.8219   -0.8730 H        1 ZINC000816269301    0.1000
28     H28    -0.5280    1.8123    0.9069 H        1 ZINC000816269301    0.1000
29     H29     0.0637   -4.2333    1.1200 H        1 ZINC000816269301    0.1600
30     H30    -0.7869   -5.6379    5.8217 H        1 ZINC000816269301    0.0800
31     H31     0.9929   -5.6130    5.8144 H        1 ZINC000816269301    0.1000
32     H32     0.1992   -5.4285    8.1230 H        1 ZINC000816269301    0.1000
33     H33     0.9279   -3.8804    7.6326 H        1 ZINC000816269301    0.0900
34     H34    -1.8379   -3.7800    7.0697 H        1 ZINC000816269301    0.4000
35     H35    -3.4587   -2.9521    7.3111 H        1 ZINC000816269301    0.1400
36     H36    -5.5710   -1.7983    7.8145 H        1 ZINC000816269301    0.1400
37     H37    -4.2657   -1.1201   11.8223 H        1 ZINC000816269301    0.1400
38     H38    -2.1498   -2.2761   11.3395 H        1 ZINC000816269301    0.1500
39     H39     0.0393   -1.4736    4.4041 H        1 ZINC000816269301    0.1500
40     H40     0.0079    0.4071    2.8532 H        1 ZINC000816269301    0.1400
@<TRIPOS>BOND
1     1     2     1
2     1     26    1
3     1     27    1
4     1     28    1
5     2     25    1
6     2     3     1
7     3     4     2
8     4     5     1
9     5     25    ar
10    5     6     ar
11    6     7     ar
12    6     29    1
13    7     8     1
14    7     23    ar
15    8     9     2
16    8     10    1
17    10    11    1
18    11    12    1
19    11    30    1
20    11    31    1
21    12    13    1
22    12    32    1
23    12    33    1
24    13    14    am
25    13    34    1
26    14    15    2
27    14    16    1
28    16    22    ar
29    16    17    ar
30    17    18    ar
31    17    35    1
32    18    19    ar
33    18    36    1
34    19    20    1
35    19    21    ar
36    21    22    ar
37    21    37    1
38    22    38    1
39    23    24    ar
40    23    39    1
41    24    25    ar
42    24    40    1
@<TRIPOS>SUBSTRUCTURE
1   ZINC000816269301 1     RESIDUE    1   A     ZIN   1
@<TRIPOS>MOLECULE
ZINC000469459940
41	42	1	0	0
SMALL
USER_CHARGES
@<TRIPOS>ATOM
1      C1     -0.0317    1.5108    0.0643 C.3      1 ZINC000469459940   -0.1600
2      C2     -0.0072   -0.0189    0.0484 C.3      1 ZINC000469459940   -0.1200
3      C3      0.7042   -0.5045   -1.2161 C.3      1 ZINC000469459940   -0.1200
4      C4      0.7287   -2.0342   -1.2320 C.3      1 ZINC000469459940   -0.6000
5      S5      1.5721   -2.6099   -2.7312 S.o2     1 ZINC000469459940    2.4900
6      O6      0.7965   -2.3142   -3.8845 O.2      1 ZINC000469459940   -0.9300
7      O7      2.9561   -2.2922   -2.6780 O.2      1 ZINC000469459940   -0.9300
8      C8      1.5250   -4.3675   -2.6148 C.ar     1 ZINC000469459940   -0.6400
9      C9      2.5514   -5.0433   -1.9791 C.ar     1 ZINC000469459940   -0.0300
10     C10     2.5209   -6.4193   -1.8848 C.ar     1 ZINC000469459940   -0.0800
11     C11     1.4512   -7.1297   -2.4322 C.ar     1 ZINC000469459940   -0.0900
12     C12     1.4116   -8.6041   -2.3345 C.2      1 ZINC000469459940    0.5600
13     O13     2.3120   -9.2006   -1.7766 O.2      1 ZINC000469459940   -0.5000
14     N14     0.3774   -9.2870   -2.8641 N.am     1 ZINC000469459940   -0.6700
15     C15     0.3865  -10.6858   -2.8579 C.ar     1 ZINC000469459940    0.1900
16     C16    -0.1639  -11.3894   -3.9212 C.ar     1 ZINC000469459940   -0.1500
17     C17    -0.1543  -12.7708   -3.9137 C.ar     1 ZINC000469459940   -0.0400
18     C18     0.4026  -13.4545   -2.8483 C.ar     1 ZINC000469459940   -0.1500
19     Br19    0.4137  -15.3455   -2.8421 Br       1 ZINC000469459940   -0.0200
20     C20     0.9529  -12.7558   -1.7852 C.ar     1 ZINC000469459940    0.1500
21     F21     1.4963  -13.4258   -0.7455 F        1 ZINC000469459940   -0.1200
22     C22     0.9510  -11.3728   -1.7912 C.ar     1 ZINC000469459940   -0.1500
23     C23     0.4187   -6.4416   -3.0718 C.ar     1 ZINC000469459940   -0.1100
24     C24     0.4590   -5.0651   -3.1546 C.ar     1 ZINC000469459940   -0.0300
25     H25     0.9900    1.8907    0.0535 H        1 ZINC000469459940    0.0600
26     H26    -0.5639    1.8748   -0.8146 H        1 ZINC000469459940    0.0600
27     H27    -0.5385    1.8568    0.9651 H        1 ZINC000469459940    0.0600
28     H28     0.5250   -0.3829    0.9272 H        1 ZINC000469459940    0.0700
29     H29    -1.0288   -0.3987    0.0591 H        1 ZINC000469459940    0.0700
30     H30     0.1720   -0.1405   -2.0950 H        1 ZINC000469459940    0.0800
31     H31     1.7258   -0.1246   -1.2269 H        1 ZINC000469459940    0.0800
32     H32     1.2609   -2.3982   -0.3532 H        1 ZINC000469459940    0.1400
33     H33    -0.2929   -2.4141   -1.2213 H        1 ZINC000469459940    0.1400
34     H34     3.3784   -4.4925   -1.5560 H        1 ZINC000469459940    0.1500
35     H35     3.3230   -6.9457   -1.3890 H        1 ZINC000469459940    0.1500
36     H36    -0.3732   -8.8086   -3.2495 H        1 ZINC000469459940    0.4200
37     H37    -0.5997  -10.8569   -4.7535 H        1 ZINC000469459940    0.1500
38     H38    -0.5824  -13.3176   -4.7408 H        1 ZINC000469459940    0.1500
39     H39     1.3798  -10.8279   -0.9632 H        1 ZINC000469459940    0.1600
40     H40    -0.4115   -6.9853   -3.4977 H        1 ZINC000469459940    0.1400
41     H41    -0.3391   -4.5315   -3.6492 H        1 ZINC000469459940    0.1500
@<TRIPOS>BOND
1     1     2     1
2     1     25    1
3     1     26    1
4     1     27    1
5     2     3     1
6     2     28    1
7     2     29    1
8     3     4     1
9     3     30    1
10    3     31    1
11    4     5     1
12    4     32    1
13    4     33    1
14    5     6     2
15    5     7     2
16    5     8     1
17    8     24    ar
18    8     9     ar
19    9     10    ar
20    9     34    1
21    10    11    ar
22    10    35    1
23    11    12    1
24    11    23    ar
25    12    13    2
26    12    14    am
27    14    15    1
28    14    36    1
29    15    22    ar
30    15    16    ar
31    16    17    ar
32    16    37    1
33    17    18    ar
34    17    38    1
35    18    19    1
36    18    20    ar
37    20    21    1
38    20    22    ar
39    22    39    1
40    23    24    ar
41    23    40    1
42    24    41    1
@<TRIPOS>SUBSTRUCTURE
1   ZINC000469459940 1     RESIDUE    1   A     ZIN   1
@<TRIPOS>MOLECULE
ZINC000186105981
44	46	1	0	0
SMALL
USER_CHARGES
@<TRIPOS>ATOM
1      C1      0.1500    1.4602   -0.6990 C.3      1 ZINC000186105981   -0.1400
2      C2     -0.0217   -0.0188   -0.3469 C.3      1 ZINC000186105981   -0.1100
3      C3      0.9933   -0.4079    0.7298 C.3      1 ZINC000186105981   -0.1600
4      C4     -1.4388   -0.2568    0.1784 C.3      1 ZINC000186105981    0.1600
5      H5     -1.5714    0.2756    1.1202 H        1 ZINC000186105981    0.1200
6      C6     -1.6508   -1.7321    0.4012 C.2      1 ZINC000186105981    0.4900
7      O7     -2.2573   -2.3883   -0.4189 O.2      1 ZINC000186105981   -0.4300
8      N8     -1.1665   -2.3224    1.5118 N.am     1 ZINC000186105981   -0.6300
9      C9     -1.4445   -3.6602    1.7653 C.2      1 ZINC000186105981    0.2400
10     N10    -2.1517   -4.4530    1.0115 N.2      1 ZINC000186105981   -0.2600
11     N11    -2.3043   -5.6448    1.3944 N.2      1 ZINC000186105981   -0.2000
12     C12    -1.7429   -5.9968    2.5170 C.2      1 ZINC000186105981    0.0300
13     C13    -1.8003   -7.3376    3.1363 C.ar     1 ZINC000186105981   -0.0500
14     C14    -1.1540   -7.5779    4.3517 C.ar     1 ZINC000186105981    0.1300
15     F15    -0.4739   -6.5847    4.9652 F        1 ZINC000186105981   -0.1200
16     C16    -1.2127   -8.8344    4.9247 C.ar     1 ZINC000186105981   -0.1400
17     C17    -1.9090   -9.8517    4.2979 C.ar     1 ZINC000186105981   -0.0600
18     C18    -2.5508   -9.6205    3.0941 C.ar     1 ZINC000186105981   -0.1200
19     C19    -2.5058   -8.3691    2.5125 C.ar     1 ZINC000186105981    0.0200
20     Cl20   -3.3125   -8.0820    1.0024 Cl       1 ZINC000186105981   -0.0100
21     S21    -0.8958   -4.5893    3.1617 S.3      1 ZINC000186105981    0.1200
22     N22    -2.4115    0.2338   -0.8011 N.am     1 ZINC000186105981   -0.6100
23     C23    -3.3983    1.2865   -0.5324 C.3      1 ZINC000186105981    0.1000
24     C24    -3.8807    1.7631   -1.9204 C.3      1 ZINC000186105981   -0.1300
25     C25    -3.6160    0.5139   -2.7923 C.3      1 ZINC000186105981   -0.1600
26     C26    -2.5111   -0.2182   -2.0631 C.2      1 ZINC000186105981    0.5200
27     O27    -1.8205   -1.0911   -2.5447 O.2      1 ZINC000186105981   -0.5000
28     H28     1.1596    1.6297   -1.0732 H        1 ZINC000186105981    0.0600
29     H29    -0.5731    1.7374   -1.4660 H        1 ZINC000186105981    0.0600
30     H30    -0.0142    2.0671    0.1914 H        1 ZINC000186105981    0.0600
31     H31     0.1425   -0.6257   -1.2373 H        1 ZINC000186105981    0.0900
32     H32     0.7709    0.1312    1.6507 H        1 ZINC000186105981    0.0600
33     H33     0.9348   -1.4807    0.9136 H        1 ZINC000186105981    0.0600
34     H34     1.9975   -0.1514    0.3922 H        1 ZINC000186105981    0.0700
35     H35    -0.6238   -1.8134    2.1342 H        1 ZINC000186105981    0.4200
36     H36    -0.7136   -9.0222    5.8638 H        1 ZINC000186105981    0.1500
37     H37    -1.9517  -10.8315    4.7501 H        1 ZINC000186105981    0.1500
38     H38    -3.0923  -10.4200    2.6103 H        1 ZINC000186105981    0.1500
39     H39    -4.2340    0.8830    0.0393 H        1 ZINC000186105981    0.0700
40     H40    -2.9330    2.1104    0.0087 H        1 ZINC000186105981    0.0800
41     H41    -4.9427    2.0077   -1.9015 H        1 ZINC000186105981    0.0900
42     H42    -3.2924    2.6127   -2.2672 H        1 ZINC000186105981    0.0800
43     H43    -4.5116   -0.1042   -2.8552 H        1 ZINC000186105981    0.1100
44     H44    -3.2830    0.8072   -3.7880 H        1 ZINC000186105981    0.1000
@<TRIPOS>BOND
1     1     2     1
2     1     28    1
3     1     29    1
4     1     30    1
5     2     3     1
6     2     4     1
7     2     31    1
8     3     32    1
9     3     33    1
10    3     34    1
11    4     5     1
12    4     6     1
13    4     22    1
14    6     7     2
15    6     8     am
16    8     9     1
17    8     35    1
18    9     21    1
19    9     10    2
20    10    11    1
21    11    12    2
22    12    13    1
23    12    21    1
24    13    19    ar
25    13    14    ar
26    14    15    1
27    14    16    ar
28    16    17    ar
29    16    36    1
30    17    18    ar
31    17    37    1
32    18    19    ar
33    18    38    1
34    19    20    1
35    22    26    am
36    22    23    1
37    23    24    1
38    23    39    1
39    23    40    1
40    24    25    1
41    24    41    1
42    24    42    1
43    25    26    1
44    25    43    1
45    25    44    1
46    26    27    2
@<TRIPOS>SUBSTRUCTURE
1   ZINC000186105981 1     RESIDUE    1   A     ZIN   1
@<TRIPOS>MOLECULE
ZINC000000992968
40	42	1	0	0
SMALL
USER_CHARGES
@<TRIPOS>ATOM
1      O1      0.8126    1.2996    2.1150 O.2      1 ZINC000000992968   -0.4600
2      C2      0.4199    1.9106    1.1394 C.2      1 ZINC000000992968    0.5600
3      O3      1.1449    1.9026    0.0013 O.3      1 ZINC000000992968   -0.2900
4      C4      2.3534    1.2857    0.0202 C.ar     1 ZINC000000992968    0.1200
5      C5      2.4238   -0.1022   -0.0311 C.ar     1 ZINC000000992968   -0.1300
6      C6      3.6468   -0.7327   -0.0118 C.ar     1 ZINC000000992968   -0.0400
7      C7      4.8217    0.0257    0.0592 C.ar     1 ZINC000000992968   -0.1600
8      C8      6.1299   -0.6421    0.0796 C.2      1 ZINC000000992968    0.4000
9      O9      6.1937   -1.8525    0.0349 O.2      1 ZINC000000992968   -0.4200
10     C10     7.3928    0.1767    0.1560 C.3      1 ZINC000000992968    0.0200
11     O11     8.5438   -0.7084    0.1624 O.3      1 ZINC000000992968   -0.3300
12     C12     9.7592   -0.1308    0.2278 C.2      1 ZINC000000992968    0.5100
13     O13     9.8547    1.0792    0.2781 O.2      1 ZINC000000992968   -0.5000
14     C14    10.9751   -0.9685    0.2384 C.ar     1 ZINC000000992968   -0.1300
15     C15    10.8688   -2.3597    0.1748 C.ar     1 ZINC000000992968   -0.0500
16     C16    12.0080   -3.1364    0.1846 C.ar     1 ZINC000000992968   -0.1200
17     C17    13.2560   -2.5397    0.2577 C.ar     1 ZINC000000992968    0.0000
18     Cl18   14.6855   -3.5245    0.2701 Cl       1 ZINC000000992968   -0.0500
19     C19    13.3680   -1.1604    0.3205 C.ar     1 ZINC000000992968   -0.1200
20     C20    12.2365   -0.3726    0.3061 C.ar     1 ZINC000000992968   -0.0400
21     C21     4.7453    1.4229    0.1102 C.ar     1 ZINC000000992968   -0.0600
22     C22     3.5174    2.0438    0.0850 C.ar     1 ZINC000000992968   -0.1200
23     C23    -0.8428    2.6501    1.1980 C.2      1 ZINC000000992968   -0.0700
24     C24    -1.6708    2.7410    2.2814 C.2      1 ZINC000000992968   -0.0900
25     C25    -2.7558    3.5416    1.8936 C.2      1 ZINC000000992968   -0.2300
26     C26    -2.5462    3.9002    0.6072 C.2      1 ZINC000000992968    0.0200
27     O27    -1.3900    3.3660    0.1936 O.3      1 ZINC000000992968   -0.1500
28     H28     1.5170   -0.6863   -0.0858 H        1 ZINC000000992968    0.1400
29     H29     3.7004   -1.8107   -0.0510 H        1 ZINC000000992968    0.1500
30     H30     7.4489    0.8394   -0.7075 H        1 ZINC000000992968    0.1100
31     H31     7.3860    0.7705    1.0700 H        1 ZINC000000992968    0.1100
32     H32     9.8963   -2.8260    0.1185 H        1 ZINC000000992968    0.1500
33     H33    11.9271   -4.2122    0.1355 H        1 ZINC000000992968    0.1500
34     H34    14.3438   -0.7011    0.3770 H        1 ZINC000000992968    0.1500
35     H35    12.3252    0.7026    0.3548 H        1 ZINC000000992968    0.1500
36     H36     5.6486    2.0124    0.1653 H        1 ZINC000000992968    0.1400
37     H37     3.4574    3.1214    0.1240 H        1 ZINC000000992968    0.1400
38     H38    -1.5194    2.2850    3.2486 H        1 ZINC000000992968    0.1700
39     H39    -3.5998    3.8192    2.5075 H        1 ZINC000000992968    0.1700
40     H40    -3.2015    4.5190    0.0122 H        1 ZINC000000992968    0.2200
@<TRIPOS>BOND
1     1     2     2
2     2     3     1
3     2     23    1
4     3     4     1
5     4     22    ar
6     4     5     ar
7     5     6     ar
8     5     28    1
9     6     7     ar
10    6     29    1
11    7     8     1
12    7     21    ar
13    8     9     2
14    8     10    1
15    10    11    1
16    10    30    1
17    10    31    1
18    11    12    1
19    12    13    2
20    12    14    1
21    14    20    ar
22    14    15    ar
23    15    16    ar
24    15    32    1
25    16    17    ar
26    16    33    1
27    17    18    1
28    17    19    ar
29    19    20    ar
30    19    34    1
31    20    35    1
32    21    22    ar
33    21    36    1
34    22    37    1
35    23    27    1
36    23    24    2
37    24    25    1
38    24    38    1
39    25    26    2
40    25    39    1
41    26    27    1
42    26    40    1
@<TRIPOS>SUBSTRUCTURE
1   ZINC000000992968 1     RESIDUE    1   A     ZIN   1
@<TRIPOS>MOLECULE
ZINC001757264545
57	57	1	0	0
SMALL
USER_CHARGES
@<TRIPOS>ATOM
1      C1    -10.4249   -1.1993   -7.8534 C.1      1 ZINC001757264545   -0.2100
2      C2     -9.5469   -0.4643   -7.5940 C.1      1 ZINC001757264545   -0.1900
3      C3     -8.4461    0.4572   -7.2688 C.3      1 ZINC001757264545   -0.0100
4      C4     -7.7061   -0.0497   -6.0292 C.3      1 ZINC001757264545   -0.1200
5      C5     -6.5619    0.9081   -5.6912 C.3      1 ZINC001757264545   -0.1200
6      C6     -5.8219    0.4013   -4.4517 C.3      1 ZINC001757264545   -0.1000
7      C7     -4.6777    1.3591   -4.1136 C.3      1 ZINC001757264545   -0.1400
8      C8     -3.9488    0.8599   -2.8927 C.2      1 ZINC001757264545    0.5100
9      O9     -4.3091   -0.1614   -2.3467 O.2      1 ZINC001757264545   -0.5400
10     N10    -2.8966    1.5484   -2.4075 N.am     1 ZINC001757264545   -0.7300
11     C11    -2.1881    1.0631   -1.2207 C.3      1 ZINC001757264545    0.1400
12     H12    -2.1733   -0.0268   -1.2266 H        1 ZINC001757264545    0.1000
13     C13    -2.9042    1.5565    0.0381 C.3      1 ZINC001757264545   -0.1300
14     C14    -2.1642    1.0497    1.2777 C.3      1 ZINC001757264545   -0.1200
15     C15    -0.7288    1.5792    1.2668 C.3      1 ZINC001757264545   -0.1200
16     C16    -0.0127    1.0858    0.0080 C.3      1 ZINC001757264545   -0.1300
17     C17    -0.7527    1.5927   -1.2315 C.3      1 ZINC001757264545    0.1400
18     H18    -0.7675    2.6825   -1.2255 H        1 ZINC001757264545    0.1000
19     N19    -0.0670    1.1202   -2.4368 N.am     1 ZINC001757264545   -0.7200
20     C20     0.9758    1.8140   -2.9346 C.2      1 ZINC001757264545    0.6400
21     O21     1.3475    2.8322   -2.3832 O.2      1 ZINC001757264545   -0.5200
22     C22     1.6461    1.3521   -4.1128 C.1      1 ZINC001757264545   -0.2300
23     C23     2.1956    0.9735   -5.0787 C.1      1 ZINC001757264545   -0.0500
24     C24     2.8846    0.4988   -6.2898 C.3      1 ZINC001757264545    0.0300
25     C25     4.0222    1.4603   -6.6393 C.3      1 ZINC001757264545   -0.1400
26     C26     3.4565   -0.8975   -6.0369 C.3      1 ZINC001757264545   -0.1400
27     C27     1.8911    0.4403   -7.4519 C.3      1 ZINC001757264545   -0.1400
28     H28   -11.2101   -1.8566   -8.0854 H        1 ZINC001757264545    0.2200
29     H29    -8.8499    1.4499   -7.0702 H        1 ZINC001757264545    0.0900
30     H30    -7.7543    0.5078   -8.1096 H        1 ZINC001757264545    0.0900
31     H31    -7.3022   -1.0424   -6.2278 H        1 ZINC001757264545    0.0700
32     H32    -8.3979   -0.1003   -5.1885 H        1 ZINC001757264545    0.0700
33     H33    -6.9657    1.9009   -5.4926 H        1 ZINC001757264545    0.0700
34     H34    -5.8701    0.9588   -6.5320 H        1 ZINC001757264545    0.0700
35     H35    -5.4180   -0.5915   -4.6502 H        1 ZINC001757264545    0.0700
36     H36    -6.5137    0.3506   -3.6109 H        1 ZINC001757264545    0.0700
37     H37    -5.0815    2.3519   -3.9150 H        1 ZINC001757264545    0.0900
38     H38    -3.9859    1.4098   -4.9544 H        1 ZINC001757264545    0.0900
39     H39    -2.6085    2.3652   -2.8442 H        1 ZINC001757264545    0.4000
40     H40    -2.9190    2.6464    0.0441 H        1 ZINC001757264545    0.0700
41     H41    -3.9268    1.1792    0.0459 H        1 ZINC001757264545    0.0800
42     H42    -2.6744    1.4012    2.1745 H        1 ZINC001757264545    0.0700
43     H43    -2.1494   -0.0402    1.2717 H        1 ZINC001757264545    0.0700
44     H44    -0.2017    1.2182    2.1499 H        1 ZINC001757264545    0.0700
45     H45    -0.7436    2.6691    1.2728 H        1 ZINC001757264545    0.0700
46     H46     0.0021   -0.0041    0.0020 H        1 ZINC001757264545    0.0700
47     H47     1.0099    1.4631    0.0003 H        1 ZINC001757264545    0.0800
48     H48    -0.3635    0.3081   -2.8767 H        1 ZINC001757264545    0.4000
49     H49     4.7300    1.5020   -5.8114 H        1 ZINC001757264545    0.0600
50     H50     4.5324    1.1088   -7.5361 H        1 ZINC001757264545    0.0700
51     H51     3.6147    2.4551   -6.8194 H        1 ZINC001757264545    0.0600
52     H52     2.6461   -1.5825   -5.7879 H        1 ZINC001757264545    0.0600
53     H53     3.9667   -1.2491   -6.9337 H        1 ZINC001757264545    0.0700
54     H54     4.1643   -0.8558   -5.2090 H        1 ZINC001757264545    0.0600
55     H55     1.4836    1.4351   -7.6320 H        1 ZINC001757264545    0.0600
56     H56     2.4013    0.0887   -8.3487 H        1 ZINC001757264545    0.0700
57     H57     1.0806   -0.2447   -7.2028 H        1 ZINC001757264545    0.0600
@<TRIPOS>BOND
1     1     2     3
2     1     28    1
3     2     3     1
4     3     4     1
5     3     29    1
6     3     30    1
7     4     5     1
8     4     31    1
9     4     32    1
10    5     6     1
11    5     33    1
12    5     34    1
13    6     7     1
14    6     35    1
15    6     36    1
16    7     8     1
17    7     37    1
18    7     38    1
19    8     9     2
20    8     10    am
21    10    11    1
22    10    39    1
23    11    12    1
24    11    17    1
25    11    13    1
26    13    14    1
27    13    40    1
28    13    41    1
29    14    15    1
30    14    42    1
31    14    43    1
32    15    16    1
33    15    44    1
34    15    45    1
35    16    17    1
36    16    46    1
37    16    47    1
38    17    18    1
39    17    19    1
40    19    20    am
41    19    48    1
42    20    21    2
43    20    22    1
44    22    23    3
45    23    24    1
46    24    25    1
47    24    26    1
48    24    27    1
49    25    49    1
50    25    50    1
51    25    51    1
52    26    52    1
53    26    53    1
54    26    54    1
55    27    55    1
56    27    56    1
57    27    57    1
@<TRIPOS>SUBSTRUCTURE
1   ZINC001757264545 1     RESIDUE    1   A     ZIN   1
@<TRIPOS>MOLECULE
ZINC000957079511
47	49	1	0	0
SMALL
USER_CHARGES
@<TRIPOS>ATOM
1      C1     -0.0184    1.5028    0.0103 C.3      1 ZINC000957079511   -0.0700
2      C2      0.0021   -0.0041    0.0020 C.2      1 ZINC000957079511    0.0300
3      C3      0.0078   -0.7894   -1.0919 C.2      1 ZINC000957079511   -0.0200
4      C4     -0.0052   -0.3305   -2.5273 C.3      1 ZINC000957079511   -0.0600
5      C5      1.4043   -0.0401   -2.9746 C.2      1 ZINC000957079511    0.5100
6      O6      2.3284   -0.1909   -2.2038 O.2      1 ZINC000957079511   -0.5200
7      N7      1.6379    0.3873   -4.2313 N.am     1 ZINC000957079511   -0.7200
8      C8      3.0081    0.6696   -4.6662 C.3      1 ZINC000957079511    0.1400
9      H9      3.7141   -0.0137   -4.1943 H        1 ZINC000957079511    0.1100
10     C10     3.3881    2.1443   -4.3820 C.3      1 ZINC000957079511    0.0800
11     N11     4.4493    2.4551   -5.3570 N.am     1 ZINC000957079511   -0.6200
12     C12     5.3877    3.4125   -5.2180 C.2      1 ZINC000957079511    0.5400
13     O13     6.2162    3.5804   -6.0877 O.2      1 ZINC000957079511   -0.5100
14     C14     5.4076    4.2743   -3.9819 C.3      1 ZINC000957079511    0.0500
15     O15     6.4868    5.2070   -4.0688 O.3      1 ZINC000957079511   -0.2800
16     C16     6.6468    6.0668   -3.0244 C.2      1 ZINC000957079511    0.1200
17     C17     5.8478    6.0547   -1.9534 C.2      1 ZINC000957079511   -0.3300
18     S18     6.3589    7.3001   -0.8216 S.3      1 ZINC000957079511    0.1300
19     C19     7.6663    7.7827   -1.8944 C.2      1 ZINC000957079511   -0.1800
20     C20     7.6549    7.0182   -2.9880 C.2      1 ZINC000957079511   -0.1400
21     C21     4.3150    1.5472   -6.5056 C.3      1 ZINC000957079511    0.1100
22     C22     3.1245    0.6093   -6.2122 C.3      1 ZINC000957079511   -0.1100
23     H23     2.2144    0.9829   -6.6817 H        1 ZINC000957079511    0.0900
24     C24     3.4285   -0.8146   -6.6823 C.3      1 ZINC000957079511   -0.1400
25     N25     0.0283   -2.0846   -0.6496 N.pl3    1 ZINC000957079511   -0.5600
26     C26     0.0343   -2.0456    0.7003 C.2      1 ZINC000957079511    0.2000
27     N27     0.0236   -0.7980    1.0829 N.2      1 ZINC000957079511   -0.4900
28     H28     1.0042    1.8801    0.0026 H        1 ZINC000957079511    0.0700
29     H29    -0.5455    1.8639   -0.8728 H        1 ZINC000957079511    0.0600
30     H30    -0.5286    1.8543    0.9071 H        1 ZINC000957079511    0.0700
31     H31    -0.4317   -1.1129   -3.1551 H        1 ZINC000957079511    0.1000
32     H32    -0.6076    0.5737   -2.6142 H        1 ZINC000957079511    0.1200
33     H33     0.8988    0.5079   -4.8479 H        1 ZINC000957079511    0.4000
34     H34     2.5273    2.7946   -4.5380 H        1 ZINC000957079511    0.0800
35     H35     3.7648    2.2497   -3.3647 H        1 ZINC000957079511    0.0800
36     H36     4.4651    4.8158   -3.9014 H        1 ZINC000957079511    0.0900
37     H37     5.5414    3.6448   -3.1022 H        1 ZINC000957079511    0.0900
38     H38     5.0150    5.3831   -1.8055 H        1 ZINC000957079511    0.1700
39     H39     8.3734    8.5745   -1.6962 H        1 ZINC000957079511    0.1800
40     H40     8.3715    7.1366   -3.7873 H        1 ZINC000957079511    0.1500
41     H41     4.1204    2.1216   -7.4113 H        1 ZINC000957079511    0.0800
42     H42     5.2268    0.9619   -6.6240 H        1 ZINC000957079511    0.0800
43     H43     4.3239   -1.1798   -6.1793 H        1 ZINC000957079511    0.0600
44     H44     2.5865   -1.4639   -6.4424 H        1 ZINC000957079511    0.0600
45     H45     3.5916   -0.8143   -7.7600 H        1 ZINC000957079511    0.0700
46     H46     0.0368   -2.8816   -1.2024 H        1 ZINC000957079511    0.4200
47     H47     0.0496   -2.9046    1.3548 H        1 ZINC000957079511    0.2100
@<TRIPOS>BOND
1     1     2     1
2     1     28    1
3     1     29    1
4     1     30    1
5     2     27    1
6     2     3     2
7     3     4     1
8     3     25    1
9     4     5     1
10    4     31    1
11    4     32    1
12    5     6     2
13    5     7     am
14    7     8     1
15    7     33    1
16    8     9     1
17    8     22    1
18    8     10    1
19    10    11    1
20    10    34    1
21    10    35    1
22    11    12    am
23    11    21    1
24    12    13    2
25    12    14    1
26    14    15    1
27    14    36    1
28    14    37    1
29    15    16    1
30    16    20    1
31    16    17    2
32    17    18    1
33    17    38    1
34    18    19    1
35    19    20    2
36    19    39    1
37    20    40    1
38    21    22    1
39    21    41    1
40    21    42    1
41    22    23    1
42    22    24    1
43    24    43    1
44    24    44    1
45    24    45    1
46    25    26    1
47    25    46    1
48    26    27    2
49    26    47    1
@<TRIPOS>SUBSTRUCTURE
1   ZINC000957079511 1     RESIDUE    1   A     ZIN   1
@<TRIPOS>MOLECULE
ZINC001211202056
31	32	1	0	0
SMALL
USER_CHARGES
@<TRIPOS>ATOM
1      N1     -0.0169    1.3933    0.0097 N.pl3    1 ZINC001211202056   -0.8500
2      C2      0.0021   -0.0041    0.0020 C.ar     1 ZINC001211202056    0.2900
3      C3     -1.1898   -0.7161    0.0038 C.ar     1 ZINC001211202056   -0.2000
4      C4     -1.1677   -2.0975   -0.0037 C.ar     1 ZINC001211202056    0.0400
5      C5      0.0393   -2.7715   -0.0127 C.ar     1 ZINC001211202056   -0.7300
6      S6      0.0622   -4.5333   -0.0223 S.o2     1 ZINC001211202056    2.6900
7      O7      1.3194   -4.9212    0.5146 O.2      1 ZINC001211202056   -0.9400
8      O8     -1.1798   -4.9537    0.5253 O.2      1 ZINC001211202056   -0.9300
9      N9      0.0617   -5.0149   -1.6067 N.am     1 ZINC001211202056   -1.0500
10     C10     1.1514   -4.7145   -2.4289 C.ar     1 ZINC001211202056    0.1600
11     C11     2.4445   -4.7091   -1.9139 C.ar     1 ZINC001211202056   -0.1200
12     C12     3.4926   -4.4056   -2.7685 C.ar     1 ZINC001211202056   -0.0800
13     C13     3.2230   -4.1204   -4.0933 C.ar     1 ZINC001211202056    0.0400
14     C14     4.3582   -3.7896   -5.0277 C.3      1 ZINC001211202056    0.5300
15     F15     4.8344   -4.9654   -5.6175 F        1 ZINC001211202056   -0.1700
16     F16     3.9035   -2.9191   -6.0241 F        1 ZINC001211202056   -0.1600
17     F17     5.3904   -3.1771   -4.3090 F        1 ZINC001211202056   -0.1700
18     N18     1.9862   -4.1339   -4.5521 N.ar     1 ZINC001211202056   -0.4100
19     C19     0.9605   -4.4220   -3.7751 C.ar     1 ZINC001211202056    0.1600
20     Cl20   -0.6448   -4.4244   -4.4361 Cl       1 ZINC001211202056    0.0000
21     C21     1.2291   -2.0660   -0.0145 C.ar     1 ZINC001211202056    0.0400
22     C22     1.2144   -0.6844   -0.0132 C.ar     1 ZINC001211202056   -0.1400
23     Cl23    2.7079    0.2007   -0.0155 Cl       1 ZINC001211202056   -0.0500
24     H24     0.8165    1.8897    0.0044 H        1 ZINC001211202056    0.4100
25     H25    -0.8634    1.8668    0.0163 H        1 ZINC001211202056    0.4100
26     H26    -2.1333   -0.1907    0.0115 H        1 ZINC001211202056    0.1400
27     H27    -2.0947   -2.6517   -0.0023 H        1 ZINC001211202056    0.1500
28     H28    -0.6949   -5.5055   -1.9642 H        1 ZINC001211202056    0.4400
29     H29     2.6266   -4.9356   -0.8737 H        1 ZINC001211202056    0.2000
30     H30     4.5087   -4.3919   -2.4029 H        1 ZINC001211202056    0.1700
31     H31     2.1703   -2.5956   -0.0215 H        1 ZINC001211202056    0.1500
@<TRIPOS>BOND
1     1     2     1
2     1     24    1
3     1     25    1
4     2     22    ar
5     2     3     ar
6     3     4     ar
7     3     26    1
8     4     5     ar
9     4     27    1
10    5     6     1
11    5     21    ar
12    6     7     2
13    6     8     2
14    6     9     am
15    9     10    1
16    9     28    1
17    10    19    ar
18    10    11    ar
19    11    12    ar
20    11    29    1
21    12    13    ar
22    12    30    1
23    13    14    1
24    13    18    ar
25    14    15    1
26    14    16    1
27    14    17    1
28    18    19    ar
29    19    20    1
30    21    22    ar
31    21    31    1
32    22    23    1
@<TRIPOS>SUBSTRUCTURE
1   ZINC001211202056 1     RESIDUE    1   A     ZIN   1
@<TRIPOS>MOLECULE
ZINC001296589646
63	66	1	0	0
SMALL
USER_CHARGES
@<TRIPOS>ATOM
1      C1     -2.3889   -4.5802    0.0366 C.3      1 ZINC001296589646   -0.1500
2      C2     -0.9802   -4.2190   -0.4389 C.3      1 ZINC001296589646    0.0500
3      O3     -0.9320   -2.8307   -0.7742 O.3      1 ZINC001296589646   -0.3600
4      C4      0.3160   -2.4096   -1.3284 C.3      1 ZINC001296589646    0.1800
5      C5      1.4475   -2.6968   -0.3753 C.2      1 ZINC001296589646    0.1500
6      N6      2.5265   -3.3773   -0.6404 N.2      1 ZINC001296589646   -0.2600
7      N7      3.2812   -3.4291    0.3987 N.2      1 ZINC001296589646   -0.3200
8      C8      2.7195   -2.7791    1.3905 C.2      1 ZINC001296589646    0.3600
9      N9      3.2349   -2.6183    2.6669 N.3      1 ZINC001296589646   -0.4300
10     C10     2.3534   -3.2517    3.6807 C.3      1 ZINC001296589646    0.0300
11     C11     3.2932   -3.4436    4.8974 C.3      1 ZINC001296589646   -0.1200
12     C12     4.6387   -3.8247    4.2383 C.3      1 ZINC001296589646   -0.1000
13     H13     4.7638   -4.9074    4.2323 H        1 ZINC001296589646    0.0800
14     C14     5.8004   -3.1608    4.9803 C.3      1 ZINC001296589646   -0.1400
15     C15     4.5465   -3.2893    2.7973 C.3      1 ZINC001296589646    0.0500
16     N16     1.5348   -2.2865    0.9261 N.pl3    1 ZINC001296589646   -0.4600
17     C17     0.5549   -1.4914    1.6704 C.3      1 ZINC001296589646    0.1000
18     C18     0.9600   -0.0165    1.6320 C.3      1 ZINC001296589646   -0.1300
19     C19    -0.0151    0.8024    2.4802 C.3      1 ZINC001296589646   -0.0500
20     H20    -1.0349    0.6145    2.1446 H        1 ZINC001296589646    0.0800
21     C21     0.1215    0.3966    3.9490 C.3      1 ZINC001296589646   -0.1500
22     C22     0.3000    2.2687    2.3327 C.ar     1 ZINC001296589646   -0.0800
23     C23     1.5733    2.7329    2.6053 C.ar     1 ZINC001296589646   -0.1100
24     C24     1.8623    4.0779    2.4700 C.ar     1 ZINC001296589646   -0.1200
25     C25     0.8782    4.9587    2.0618 C.ar     1 ZINC001296589646   -0.1200
26     C26    -0.3948    4.4944    1.7884 C.ar     1 ZINC001296589646   -0.1200
27     C27    -0.6827    3.1487    1.9195 C.ar     1 ZINC001296589646   -0.1200
28     C28     0.2735   -0.9035   -1.7050 C.3      1 ZINC001296589646   -0.1400
29     C29    -0.3767   -0.9698   -3.1099 C.3      1 ZINC001296589646    0.0600
30     O30     0.1530   -2.1614   -3.7124 O.3      1 ZINC001296589646   -0.3700
31     C31     0.5650   -3.0822   -2.6955 C.3      1 ZINC001296589646    0.0400
32     H32    -2.6060   -4.0511    0.9645 H        1 ZINC001296589646    0.0600
33     H33    -3.1142   -4.2920   -0.7243 H        1 ZINC001296589646    0.0700
34     H34    -2.4500   -5.6549    0.2083 H        1 ZINC001296589646    0.0700
35     H35    -0.2641   -4.4257    0.3565 H        1 ZINC001296589646    0.0500
36     H36    -0.7294   -4.8138   -1.3171 H        1 ZINC001296589646    0.0600
37     H37     1.5240   -2.5919    3.9354 H        1 ZINC001296589646    0.0900
38     H38     1.9854   -4.2135    3.3234 H        1 ZINC001296589646    0.0600
39     H39     3.3889   -2.5156    5.4610 H        1 ZINC001296589646    0.0800
40     H40     2.9354   -4.2499    5.5378 H        1 ZINC001296589646    0.0800
41     H41     5.8215   -3.5132    6.0116 H        1 ZINC001296589646    0.0600
42     H42     6.7391   -3.4174    4.4894 H        1 ZINC001296589646    0.0600
43     H43     5.6681   -2.0789    4.9687 H        1 ZINC001296589646    0.0600
44     H44     4.6130   -4.1154    2.0893 H        1 ZINC001296589646    0.0800
45     H45     5.3490   -2.5747    2.6146 H        1 ZINC001296589646    0.0900
46     H46    -0.4291   -1.6099    1.2168 H        1 ZINC001296589646    0.1100
47     H47     0.5213   -1.8321    2.7053 H        1 ZINC001296589646    0.1000
48     H48     1.9688    0.0937    2.0299 H        1 ZINC001296589646    0.0800
49     H49     0.9345    0.3405    0.6024 H        1 ZINC001296589646    0.0700
50     H50    -0.5731    0.9801    4.5533 H        1 ZINC001296589646    0.0600
51     H51    -0.1064   -0.6639    4.0556 H        1 ZINC001296589646    0.0600
52     H52     1.1414    0.5846    4.2846 H        1 ZINC001296589646    0.0600
53     H53     2.3422    2.0447    2.9242 H        1 ZINC001296589646    0.1200
54     H54     2.8569    4.4406    2.6836 H        1 ZINC001296589646    0.1200
55     H55     1.1039    6.0096    1.9568 H        1 ZINC001296589646    0.1200
56     H56    -1.1637    5.1826    1.4698 H        1 ZINC001296589646    0.1200
57     H57    -1.6773    2.7860    1.7059 H        1 ZINC001296589646    0.1200
58     H58    -0.3505   -0.3421   -1.0095 H        1 ZINC001296589646    0.1000
59     H59     1.2777   -0.4828   -1.7563 H        1 ZINC001296589646    0.1000
60     H60    -1.4609   -1.0401   -3.0221 H        1 ZINC001296589646    0.0700
61     H61    -0.0998   -0.0940   -3.6966 H        1 ZINC001296589646    0.0900
62     H62     1.6253   -3.3081   -2.8088 H        1 ZINC001296589646    0.1000
63     H63    -0.0195   -3.9993   -2.7683 H        1 ZINC001296589646    0.0800
@<TRIPOS>BOND
1     1     2     1
2     1     32    1
3     1     33    1
4     1     34    1
5     2     3     1
6     2     35    1
7     2     36    1
8     3     4     1
9     4     31    1
10    4     5     1
11    4     28    1
12    5     16    1
13    5     6     2
14    6     7     1
15    7     8     2
16    8     9     1
17    8     16    1
18    9     15    1
19    9     10    1
20    10    11    1
21    10    37    1
22    10    38    1
23    11    12    1
24    11    39    1
25    11    40    1
26    12    13    1
27    12    14    1
28    12    15    1
29    14    41    1
30    14    42    1
31    14    43    1
32    15    44    1
33    15    45    1
34    16    17    1
35    17    18    1
36    17    46    1
37    17    47    1
38    18    19    1
39    18    48    1
40    18    49    1
41    19    20    1
42    19    21    1
43    19    22    1
44    21    50    1
45    21    51    1
46    21    52    1
47    22    27    ar
48    22    23    ar
49    23    24    ar
50    23    53    1
51    24    25    ar
52    24    54    1
53    25    26    ar
54    25    55    1
55    26    27    ar
56    26    56    1
57    27    57    1
58    28    29    1
59    28    58    1
60    28    59    1
61    29    30    1
62    29    60    1
63    29    61    1
64    30    31    1
65    31    62    1
66    31    63    1
@<TRIPOS>SUBSTRUCTURE
1   ZINC001296589646 1     RESIDUE    1   A     ZIN   1
@<TRIPOS>MOLECULE
ZINC000463474628
52	54	1	0	0
SMALL
USER_CHARGES
@<TRIPOS>ATOM
1      C1      0.0238    1.8262   -0.1372 C.3      1 ZINC000463474628   -0.1400
2      C2      0.0177    0.3460    0.2500 C.3      1 ZINC000463474628   -0.1300
3      C3      0.6340   -0.4796   -0.8811 C.3      1 ZINC000463474628    0.1400
4      H4      0.1311   -0.2535   -1.8213 H        1 ZINC000463474628    0.0800
5      C5      0.5028   -1.9842   -0.5642 C.3      1 ZINC000463474628   -0.1300
6      C6      1.8478   -2.5654   -1.0746 C.3      1 ZINC000463474628   -0.1300
7      C7      2.8309   -1.4167   -0.7375 C.3      1 ZINC000463474628    0.0900
8      N8      2.0684   -0.1779   -0.9961 N.am     1 ZINC000463474628   -0.6100
9      C9      2.6004    1.0258   -1.2865 C.2      1 ZINC000463474628    0.5300
10     O10     1.8777    1.9884   -1.4350 O.2      1 ZINC000463474628   -0.5100
11     C11     4.0934    1.1757   -1.4267 C.3      1 ZINC000463474628   -0.1200
12     H12     4.5887    0.6827   -0.5902 H        1 ZINC000463474628    0.1000
13     C13     4.4592    2.6617   -1.4330 C.3      1 ZINC000463474628   -0.1000
14     C14     5.9780    2.8145   -1.5423 C.3      1 ZINC000463474628   -0.1300
15     C15     6.4563    2.1933   -2.8585 C.3      1 ZINC000463474628    0.0900
16     N16     5.9832    0.8039   -2.9250 N.am     1 ZINC000463474628   -0.6000
17     C17     6.8473   -0.2057   -3.1500 C.2      1 ZINC000463474628    0.5700
18     O18     6.4343   -1.3416   -3.2797 O.2      1 ZINC000463474628   -0.5200
19     C19     8.2969    0.0683   -3.2389 C.ar     1 ZINC000463474628   -0.1200
20     C20     8.7775    1.0097   -4.1506 C.ar     1 ZINC000463474628   -0.0800
21     C21    10.1314    1.2610   -4.2290 C.ar     1 ZINC000463474628   -0.1000
22     C22    11.0133    0.5816   -3.4057 C.ar     1 ZINC000463474628   -0.0700
23     Br23   12.8679    0.9326   -3.5191 Br       1 ZINC000463474628   -0.0400
24     C24    10.5425   -0.3536   -2.4991 C.ar     1 ZINC000463474628   -0.0900
25     C25     9.1907   -0.6094   -2.4074 C.ar     1 ZINC000463474628   -0.0300
26     C26     8.6801   -1.6274   -1.4205 C.3      1 ZINC000463474628   -0.1300
27     C27     4.5504    0.5352   -2.7411 C.3      1 ZINC000463474628    0.1200
28     H28     0.9994    2.2567    0.0882 H        1 ZINC000463474628    0.0700
29     H29    -0.1786    1.9235   -1.2038 H        1 ZINC000463474628    0.0600
30     H30    -0.7451    2.3528    0.4281 H        1 ZINC000463474628    0.0300
31     H31     0.6001    0.2064    1.1608 H        1 ZINC000463474628    0.0600
32     H32    -1.0080    0.0194    0.4210 H        1 ZINC000463474628    0.0700
33     H33     0.3958   -2.1445    0.5086 H        1 ZINC000463474628    0.0800
34     H34    -0.3363   -2.4207   -1.1060 H        1 ZINC000463474628    0.0800
35     H35     2.1102   -3.4753   -0.5348 H        1 ZINC000463474628    0.0900
36     H36     1.8125   -2.7468   -2.1488 H        1 ZINC000463474628    0.0800
37     H37     3.1297   -1.4681    0.3094 H        1 ZINC000463474628    0.0700
38     H38     3.7061   -1.4640   -1.3855 H        1 ZINC000463474628    0.0800
39     H39     3.9830    3.1493   -2.2836 H        1 ZINC000463474628    0.0800
40     H40     4.1133    3.1248   -0.5089 H        1 ZINC000463474628    0.0700
41     H41     6.2396    3.8725   -1.5232 H        1 ZINC000463474628    0.0800
42     H42     6.4560    2.3059   -0.7051 H        1 ZINC000463474628    0.0700
43     H43     6.0505    2.7580   -3.6978 H        1 ZINC000463474628    0.0800
44     H44     7.5455    2.2106   -2.8962 H        1 ZINC000463474628    0.1000
45     H45     8.0906    1.5400   -4.7936 H        1 ZINC000463474628    0.1400
46     H46    10.5045    1.9889   -4.9342 H        1 ZINC000463474628    0.1400
47     H47    11.2353   -0.8807   -1.8598 H        1 ZINC000463474628    0.1400
48     H48     8.3775   -1.1236   -0.5025 H        1 ZINC000463474628    0.0700
49     H49     7.8240   -2.1498   -1.8474 H        1 ZINC000463474628    0.0900
50     H50     9.4696   -2.3452   -1.1976 H        1 ZINC000463474628    0.0700
51     H51     4.3825   -0.5411   -2.7018 H        1 ZINC000463474628    0.1000
52     H52     3.9887    0.9647   -3.5707 H        1 ZINC000463474628    0.0800
@<TRIPOS>BOND
1     1     2     1
2     1     28    1
3     1     29    1
4     1     30    1
5     2     3     1
6     2     31    1
7     2     32    1
8     3     4     1
9     3     8     1
10    3     5     1
11    5     6     1
12    5     33    1
13    5     34    1
14    6     7     1
15    6     35    1
16    6     36    1
17    7     8     1
18    7     37    1
19    7     38    1
20    8     9     am
21    9     10    2
22    9     11    1
23    11    12    1
24    11    27    1
25    11    13    1
26    13    14    1
27    13    39    1
28    13    40    1
29    14    15    1
30    14    41    1
31    14    42    1
32    15    16    1
33    15    43    1
34    15    44    1
35    16    17    am
36    16    27    1
37    17    18    2
38    17    19    1
39    19    25    ar
40    19    20    ar
41    20    21    ar
42    20    45    1
43    21    22    ar
44    21    46    1
45    22    23    1
46    22    24    ar
47    24    25    ar
48    24    47    1
49    25    26    1
50    26    48    1
51    26    49    1
52    26    50    1
53    27    51    1
54    27    52    1
@<TRIPOS>SUBSTRUCTURE
1   ZINC000463474628 1     RESIDUE    1   A     ZIN   1
@<TRIPOS>MOLECULE
ZINC000464706598
44	47	1	0	0
SMALL
USER_CHARGES
@<TRIPOS>ATOM
1      O1     -0.6883    0.0325   -1.1084 O.2      1 ZINC000464706598   -0.5000
2      C2     -0.4803    1.2200   -0.9489 C.2      1 ZINC000464706598    0.5900
3      C3      0.6445    1.8713   -1.6444 C.2      1 ZINC000464706598   -0.2800
4      C4      1.8092    1.2625   -2.0677 C.2      1 ZINC000464706598    0.1300
5      N5      2.5664    2.2075   -2.6539 N.pl3    1 ZINC000464706598   -0.3100
6      C6      3.8323    2.0075   -3.2216 C.ar     1 ZINC000464706598    0.1700
7      C7      4.4062    0.7432   -3.2135 C.ar     1 ZINC000464706598   -0.1300
8      C8      5.6534    0.5487   -3.7739 C.ar     1 ZINC000464706598   -0.0600
9      C9      6.3312    1.6125   -4.3426 C.ar     1 ZINC000464706598   -0.1000
10     Br10    8.0390    1.3427   -5.1084 Br       1 ZINC000464706598   -0.0400
11     C11     5.7613    2.8733   -4.3524 C.ar     1 ZINC000464706598   -0.0700
12     C12     4.5121    3.0721   -3.7980 C.ar     1 ZINC000464706598   -0.1100
13     N13     1.8762    3.4237   -2.6016 N.2      1 ZINC000464706598   -0.2800
14     C14     0.7298    3.2343   -2.0081 C.2      1 ZINC000464706598    0.0700
15     N15    -1.2817    1.9419   -0.1407 N.am     1 ZINC000464706598   -0.6100
16     C16    -1.1112    3.3975   -0.0086 C.3      1 ZINC000464706598    0.0400
17     C17    -1.0472    3.7433    1.4835 C.3      1 ZINC000464706598    0.0500
18     O18    -2.1777    3.1737    2.1477 O.3      1 ZINC000464706598   -0.3700
19     C19    -2.2286    1.7459    2.0961 C.3      1 ZINC000464706598    0.0500
20     C20    -2.3568    1.2985    0.6311 C.3      1 ZINC000464706598    0.1600
21     H21    -3.3283    1.5995    0.2390 H        1 ZINC000464706598    0.0900
22     C22    -2.2162   -0.1993    0.5436 C.ar     1 ZINC000464706598   -0.0500
23     C23    -1.1711   -0.8343    1.1883 C.ar     1 ZINC000464706598   -0.1000
24     C24    -1.0421   -2.2082    1.1081 C.ar     1 ZINC000464706598   -0.1100
25     C25    -1.9584   -2.9473    0.3835 C.ar     1 ZINC000464706598   -0.1200
26     C26    -3.0040   -2.3125   -0.2604 C.ar     1 ZINC000464706598   -0.1100
27     C27    -3.1355   -0.9390   -0.1766 C.ar     1 ZINC000464706598   -0.1000
28     H28     2.0655    0.2201   -1.9494 H        1 ZINC000464706598    0.1900
29     H29     3.8779   -0.0874   -2.7691 H        1 ZINC000464706598    0.1400
30     H30     6.1003   -0.4345   -3.7678 H        1 ZINC000464706598    0.1500
31     H31     6.2922    3.7019   -4.7972 H        1 ZINC000464706598    0.1500
32     H32     4.0675    4.0563   -3.8062 H        1 ZINC000464706598    0.1500
33     H33    -0.0201    3.9887   -1.8215 H        1 ZINC000464706598    0.2100
34     H34    -0.1862    3.7046   -0.4966 H        1 ZINC000464706598    0.1200
35     H35    -1.9568    3.9093   -0.4681 H        1 ZINC000464706598    0.0800
36     H36    -0.1307    3.3380    1.9122 H        1 ZINC000464706598    0.0600
37     H37    -1.0599    4.8262    1.6071 H        1 ZINC000464706598    0.1100
38     H38    -1.3164    1.3332    2.5270 H        1 ZINC000464706598    0.0600
39     H39    -3.0913    1.3917    2.6604 H        1 ZINC000464706598    0.1100
40     H40    -0.4552   -0.2568    1.7544 H        1 ZINC000464706598    0.1100
41     H41    -0.2252   -2.7042    1.6112 H        1 ZINC000464706598    0.1200
42     H42    -1.8572   -4.0207    0.3203 H        1 ZINC000464706598    0.1200
43     H43    -3.7197   -2.8899   -0.8268 H        1 ZINC000464706598    0.1200
44     H44    -3.9524   -0.4430   -0.6797 H        1 ZINC000464706598    0.1100
@<TRIPOS>BOND
1     1     2     2
2     2     3     1
3     2     15    am
4     3     14    1
5     3     4     2
6     4     5     1
7     4     28    1
8     5     6     1
9     5     13    1
10    6     12    ar
11    6     7     ar
12    7     8     ar
13    7     29    1
14    8     9     ar
15    8     30    1
16    9     10    1
17    9     11    ar
18    11    12    ar
19    11    31    1
20    12    32    1
21    13    14    2
22    14    33    1
23    15    20    1
24    15    16    1
25    16    17    1
26    16    34    1
27    16    35    1
28    17    18    1
29    17    36    1
30    17    37    1
31    18    19    1
32    19    20    1
33    19    38    1
34    19    39    1
35    20    21    1
36    20    22    1
37    22    27    ar
38    22    23    ar
39    23    24    ar
40    23    40    1
41    24    25    ar
42    24    41    1
43    25    26    ar
44    25    42    1
45    26    27    ar
46    26    43    1
47    27    44    1
@<TRIPOS>SUBSTRUCTURE
1   ZINC000464706598 1     RESIDUE    1   A     ZIN   1
@<TRIPOS>MOLECULE
ZINC000175255939
48	50	1	0	0
SMALL
USER_CHARGES
@<TRIPOS>ATOM
1      C1     -0.0176    1.4478    0.0100 C.3      1 ZINC000175255939    0.0300
2      O2      0.0021   -0.0041    0.0020 O.3      1 ZINC000175255939   -0.3600
3      C3     -1.1855   -0.6297    0.0100 C.2      1 ZINC000175255939    0.4600
4      O4     -2.2076    0.0145    0.0232 O.2      1 ZINC000175255939   -0.5000
5      C5     -1.2439   -2.1355    0.0025 C.3      1 ZINC000175255939   -0.0800
6      H6     -0.7531   -2.5137   -0.8943 H        1 ZINC000175255939    0.1100
7      C7     -0.5311   -2.6798    1.2421 C.3      1 ZINC000175255939   -0.1200
8      C8     -0.5905   -4.2086    1.2344 C.3      1 ZINC000175255939   -0.1100
9      C9     -2.0516   -4.6623    1.2459 C.3      1 ZINC000175255939   -0.1200
10     C10    -2.7644   -4.1181    0.0063 C.3      1 ZINC000175255939   -0.1000
11     H11    -2.2736   -4.4963   -0.8904 H        1 ZINC000175255939    0.1100
12     C12    -4.2036   -4.5650    0.0177 C.2      1 ZINC000175255939    0.5100
13     O13    -5.0941   -3.7418    0.0306 O.2      1 ZINC000175255939   -0.4800
14     N14    -4.5010   -5.8795    0.0135 N.am     1 ZINC000175255939   -0.6300
15     C15    -5.8263   -6.2910    0.0239 C.2      1 ZINC000175255939    0.2100
16     C16    -6.2814   -7.5757    0.0268 C.2      1 ZINC000175255939   -0.2600
17     C17    -7.6936   -7.4363    0.0383 C.2      1 ZINC000175255939    0.0900
18     C18    -8.6964   -8.5300    0.0457 C.ar     1 ZINC000175255939   -0.0500
19     C19    -8.2791   -9.8598    0.0474 C.ar     1 ZINC000175255939   -0.0600
20     C20    -9.2131  -10.8741    0.0543 C.ar     1 ZINC000175255939   -0.1300
21     C21   -10.5683  -10.5717    0.0591 C.ar     1 ZINC000175255939    0.1200
22     O22   -11.4863  -11.5730    0.0659 O.3      1 ZINC000175255939   -0.3200
23     C23   -12.8632  -11.1908    0.0705 C.3      1 ZINC000175255939    0.4100
24     F24   -13.1313  -10.4272    1.2118 F        1 ZINC000175255939   -0.2000
25     F25   -13.1409  -10.4339   -1.0728 F        1 ZINC000175255939   -0.2000
26     C26   -10.9869   -9.2478    0.0575 C.ar     1 ZINC000175255939   -0.1900
27     C27   -10.0573   -8.2294    0.0569 C.ar     1 ZINC000175255939   -0.0500
28     N28    -7.9351   -6.1470    0.0410 N.2      1 ZINC000175255939   -0.3600
29     O29    -6.9126   -5.5021    0.0390 O.3      1 ZINC000175255939    0.1200
30     C30    -2.7051   -2.5893    0.0140 C.3      1 ZINC000175255939   -0.0900
31     H31     1.0050    1.8251    0.0023 H        1 ZINC000175255939    0.1000
32     H32    -0.5448    1.8089   -0.8731 H        1 ZINC000175255939    0.0600
33     H33    -0.5278    1.7993    0.9068 H        1 ZINC000175255939    0.0600
34     H34     0.5098   -2.3565    1.2338 H        1 ZINC000175255939    0.0800
35     H35    -1.0220   -2.3016    2.1388 H        1 ZINC000175255939    0.0700
36     H36    -0.0996   -4.5868    0.3377 H        1 ZINC000175255939    0.0700
37     H37    -0.0826   -4.5963    2.1175 H        1 ZINC000175255939    0.0800
38     H38    -2.0939   -5.7515    1.2405 H        1 ZINC000175255939    0.0700
39     H39    -2.5424   -4.2842    2.1427 H        1 ZINC000175255939    0.0800
40     H40    -3.7888   -6.5379    0.0031 H        1 ZINC000175255939    0.4300
41     H41    -5.7023   -8.4873    0.0214 H        1 ZINC000175255939    0.1800
42     H42    -7.2251  -10.0956    0.0429 H        1 ZINC000175255939    0.1400
43     H43    -8.8903  -11.9047    0.0555 H        1 ZINC000175255939    0.1400
44     H44   -13.4882  -12.0838    0.0758 H        1 ZINC000175255939    0.1900
45     H45   -12.0416   -9.0155    0.0612 H        1 ZINC000175255939    0.1400
46     H46   -10.3835   -7.1999    0.0560 H        1 ZINC000175255939    0.1400
47     H47    -3.1959   -2.2111    0.9107 H        1 ZINC000175255939    0.0900
48     H48    -3.2129   -2.2015   -0.8691 H        1 ZINC000175255939    0.0800
@<TRIPOS>BOND
1     1     2     1
2     1     31    1
3     1     32    1
4     1     33    1
5     2     3     1
6     3     4     2
7     3     5     1
8     5     6     1
9     5     30    1
10    5     7     1
11    7     8     1
12    7     34    1
13    7     35    1
14    8     9     1
15    8     36    1
16    8     37    1
17    9     10    1
18    9     38    1
19    9     39    1
20    10    11    1
21    10    12    1
22    10    30    1
23    12    13    2
24    12    14    am
25    14    15    1
26    14    40    1
27    15    29    1
28    15    16    2
29    16    17    1
30    16    41    1
31    17    18    1
32    17    28    2
33    18    27    ar
34    18    19    ar
35    19    20    ar
36    19    42    1
37    20    21    ar
38    20    43    1
39    21    22    1
40    21    26    ar
41    22    23    1
42    23    24    1
43    23    25    1
44    23    44    1
45    26    27    ar
46    26    45    1
47    27    46    1
48    28    29    1
49    30    47    1
50    30    48    1
@<TRIPOS>SUBSTRUCTURE
1   ZINC000175255939 1     RESIDUE    1   A     ZIN   1
@<TRIPOS>MOLECULE
ZINC001127302705
51	53	1	0	0
SMALL
USER_CHARGES
@<TRIPOS>ATOM
1      C1     -0.0187    1.5258    0.0104 C.3      1 ZINC001127302705   -0.1500
2      C2      0.0021   -0.0041    0.0020 C.3      1 ZINC001127302705   -0.1400
3      C3      0.7421   -0.5109    1.2415 C.3      1 ZINC001127302705    0.1800
4      C4      0.7628   -2.0407    1.2331 C.3      1 ZINC001127302705   -0.1600
5      C5      2.1775    0.0187    1.2307 C.3      1 ZINC001127302705    0.0700
6      O6      2.8463   -0.4422    0.0550 O.3      1 ZINC001127302705   -0.2800
7      C7      4.1377   -0.0591   -0.1093 C.ar     1 ZINC001127302705    0.3400
8      N8      4.7162    0.7022    0.8039 N.ar     1 ZINC001127302705   -0.5300
9      C9      5.9698    1.0970    0.6836 C.ar     1 ZINC001127302705    0.1400
10     C10     6.7272    0.7261   -0.4092 C.ar     1 ZINC001127302705   -0.2000
11     C11     6.1574   -0.0730   -1.3910 C.ar     1 ZINC001127302705   -0.0300
12     C12     4.8419   -0.4756   -1.2334 C.ar     1 ZINC001127302705   -0.1100
13     Cl13    4.0783   -1.4754   -2.4296 Cl       1 ZINC001127302705   -0.0400
14     N14     0.0564   -0.0384    2.4469 N.am     1 ZINC001127302705   -0.7100
15     C15    -1.2274   -0.3827    2.6706 C.2      1 ZINC001127302705    0.6200
16     O16    -1.8163   -1.0853    1.8721 O.2      1 ZINC001127302705   -0.5200
17     C17    -1.9187    0.0936    3.8858 C.2      1 ZINC001127302705   -0.0200
18     N18    -1.4088    0.8610    4.8285 N.2      1 ZINC001127302705   -0.2500
19     N19    -2.2866    1.0817    5.7402 N.pl3    1 ZINC001127302705   -0.2800
20     C20    -2.0641    1.8951    6.9381 C.3      1 ZINC001127302705    0.1600
21     C21    -0.8635    1.3726    7.6841 C.ar     1 ZINC001127302705   -0.1200
22     C22    -1.0210    0.3972    8.6508 C.ar     1 ZINC001127302705   -0.1000
23     C23     0.0803   -0.0820    9.3351 C.ar     1 ZINC001127302705   -0.1200
24     C24     1.3393    0.4139    9.0524 C.ar     1 ZINC001127302705   -0.1100
25     C25     1.4970    1.3887    8.0850 C.ar     1 ZINC001127302705   -0.1200
26     C26     0.3961    1.8648    7.3977 C.ar     1 ZINC001127302705   -0.0800
27     C27    -3.4439    0.4562    5.4354 C.2      1 ZINC001127302705   -0.0200
28     C28    -3.2563   -0.1820    4.2564 C.2      1 ZINC001127302705   -0.1800
29     H29     1.0039    1.9031    0.0027 H        1 ZINC001127302705    0.0500
30     H30    -0.5459    1.8868   -0.8726 H        1 ZINC001127302705    0.0600
31     H31    -0.5289    1.8773    0.9072 H        1 ZINC001127302705    0.0500
32     H32    -1.0205   -0.3814    0.0098 H        1 ZINC001127302705    0.0900
33     H33     0.5123   -0.3556   -0.8948 H        1 ZINC001127302705    0.0800
34     H34     1.2730   -2.3923    0.3363 H        1 ZINC001127302705    0.0700
35     H35     1.2900   -2.4018    2.1162 H        1 ZINC001127302705    0.0500
36     H36    -0.2598   -2.4180    1.2409 H        1 ZINC001127302705    0.0800
37     H37     2.1627    1.1086    1.2367 H        1 ZINC001127302705    0.0800
38     H38     2.7046   -0.3424    2.1137 H        1 ZINC001127302705    0.0700
39     H39     6.4087    1.7186    1.4501 H        1 ZINC001127302705    0.1700
40     H40     7.7521    1.0544   -0.4996 H        1 ZINC001127302705    0.1500
41     H41     6.7282   -0.3772   -2.2559 H        1 ZINC001127302705    0.1500
42     H42     0.5262    0.5221    3.0839 H        1 ZINC001127302705    0.4100
43     H43    -1.8886    2.9306    6.6468 H        1 ZINC001127302705    0.1000
44     H44    -2.9426    1.8425    7.5813 H        1 ZINC001127302705    0.1100
45     H45    -2.0046    0.0097    8.8717 H        1 ZINC001127302705    0.1200
46     H46    -0.0429   -0.8437   10.0909 H        1 ZINC001127302705    0.1300
47     H47     2.1997    0.0400    9.5875 H        1 ZINC001127302705    0.1200
48     H48     2.4805    1.7764    7.8644 H        1 ZINC001127302705    0.1300
49     H49     0.5193    2.6264    6.6420 H        1 ZINC001127302705    0.1300
50     H50    -4.3515    0.4671    6.0206 H        1 ZINC001127302705    0.1800
51     H51    -3.9740   -0.7814    3.7161 H        1 ZINC001127302705    0.1600
@<TRIPOS>BOND
1     1     2     1
2     1     29    1
3     1     30    1
4     1     31    1
5     2     3     1
6     2     32    1
7     2     33    1
8     3     4     1
9     3     5     1
10    3     14    1
11    4     34    1
12    4     35    1
13    4     36    1
14    5     6     1
15    5     37    1
16    5     38    1
17    6     7     1
18    7     12    ar
19    7     8     ar
20    8     9     ar
21    9     10    ar
22    9     39    1
23    10    11    ar
24    10    40    1
25    11    12    ar
26    11    41    1
27    12    13    1
28    14    15    am
29    14    42    1
30    15    16    2
31    15    17    1
32    17    28    1
33    17    18    2
34    18    19    1
35    19    20    1
36    19    27    1
37    20    21    1
38    20    43    1
39    20    44    1
40    21    26    ar
41    21    22    ar
42    22    23    ar
43    22    45    1
44    23    24    ar
45    23    46    1
46    24    25    ar
47    24    47    1
48    25    26    ar
49    25    48    1
50    26    49    1
51    27    28    2
52    27    50    1
53    28    51    1
@<TRIPOS>SUBSTRUCTURE
1   ZINC001127302705 1     RESIDUE    1   A     ZIN   1
@<TRIPOS>MOLECULE
ZINC001087843226
55	58	1	0	0
SMALL
USER_CHARGES
@<TRIPOS>ATOM
1      C1      0.6724   -0.3631    1.3273 C.3      1 ZINC001087843226   -0.1500
2      C2      0.0278   -0.1145   -0.0378 C.3      1 ZINC001087843226   -0.1500
3      C3     -1.3873   -0.6962   -0.0472 C.3      1 ZINC001087843226    0.0700
4      H4     -1.9676   -0.2726    0.7725 H        1 ZINC001087843226    0.1000
5      C5     -1.3246   -2.2318    0.0927 C.3      1 ZINC001087843226    0.1300
6      H6     -0.3568   -2.6096   -0.2370 H        1 ZINC001087843226    0.1000
7      N7     -1.5935   -2.6375    1.4745 N.am     1 ZINC001087843226   -0.7200
8      C8     -1.1162   -3.8097    1.9377 C.2      1 ZINC001087843226    0.5600
9      O9     -0.4626   -4.5303    1.2090 O.2      1 ZINC001087843226   -0.5300
10     C10    -1.3876   -4.2191    3.3322 C.ar     1 ZINC001087843226   -0.1400
11     C11    -2.1422   -3.3957    4.1672 C.ar     1 ZINC001087843226   -0.0800
12     C12    -2.3921   -3.7833    5.4676 C.ar     1 ZINC001087843226   -0.1300
13     C13    -1.8962   -4.9837    5.9404 C.ar     1 ZINC001087843226   -0.0400
14     C14    -2.1742   -5.3992    7.3621 C.3      1 ZINC001087843226   -0.1200
15     C15    -1.1453   -5.8088    5.1170 C.ar     1 ZINC001087843226   -0.1100
16     C16    -0.8928   -5.4349    3.8136 C.ar     1 ZINC001087843226   -0.0300
17     C17    -0.0583   -6.4951    3.1277 C.3      1 ZINC001087843226   -0.0800
18     C18     0.5368   -7.3430    4.2720 C.3      1 ZINC001087843226   -0.1200
19     C19    -0.5029   -7.1506    5.3985 C.3      1 ZINC001087843226   -0.0800
20     C20    -2.4540   -2.7154   -0.8547 C.3      1 ZINC001087843226   -0.1400
21     C21    -2.3635   -1.6801   -2.0034 C.3      1 ZINC001087843226    0.0400
22     N22    -2.0438   -0.3978   -1.3332 N.3      1 ZINC001087843226   -0.5100
23     C23    -1.1846    0.4395   -2.1810 C.3      1 ZINC001087843226    0.1100
24     C24    -1.9148    0.7809   -3.4543 C.2      1 ZINC001087843226    0.0800
25     N25    -1.8085    0.1354   -4.5772 N.2      1 ZINC001087843226   -0.2700
26     O26    -2.6559    0.7764   -5.5173 O.3      1 ZINC001087843226    0.0300
27     N27    -3.2667    1.8588   -4.8328 N.2      1 ZINC001087843226   -0.2800
28     C28    -2.8237    1.8460   -3.6112 C.2      1 ZINC001087843226    0.0900
29     C29    -3.2132    2.8245   -2.5333 C.3      1 ZINC001087843226   -0.0900
30     H30     1.7036   -0.0103    1.3118 H        1 ZINC001087843226    0.0600
31     H31     0.1160    0.1745    2.0951 H        1 ZINC001087843226    0.0600
32     H32     0.6568   -1.4305    1.5476 H        1 ZINC001087843226    0.0600
33     H33    -0.0189    0.9578   -0.2278 H        1 ZINC001087843226    0.0800
34     H34     0.6234   -0.5954   -0.8138 H        1 ZINC001087843226    0.0700
35     H35    -2.1151   -2.0624    2.0560 H        1 ZINC001087843226    0.4000
36     H36    -2.5293   -2.4577    3.7975 H        1 ZINC001087843226    0.1300
37     H37    -2.9757   -3.1477    6.1170 H        1 ZINC001087843226    0.1300
38     H38    -3.0992   -5.9746    7.3981 H        1 ZINC001087843226    0.0800
39     H39    -1.3507   -6.0117    7.7292 H        1 ZINC001087843226    0.0700
40     H40    -2.2738   -4.5118    7.9871 H        1 ZINC001087843226    0.0700
41     H41    -0.6856   -7.1134    2.4855 H        1 ZINC001087843226    0.0800
42     H42     0.7387   -6.0316    2.5463 H        1 ZINC001087843226    0.0900
43     H43     0.6027   -8.3920    3.9832 H        1 ZINC001087843226    0.0800
44     H44     1.5125   -6.9601    4.5710 H        1 ZINC001087843226    0.0700
45     H45    -0.0090   -7.1331    6.3700 H        1 ZINC001087843226    0.0800
46     H46    -1.2473   -7.9461    5.3660 H        1 ZINC001087843226    0.0800
47     H47    -2.2527   -3.7225   -1.2199 H        1 ZINC001087843226    0.0800
48     H48    -3.4247   -2.6674   -0.3613 H        1 ZINC001087843226    0.0800
49     H49    -1.5706   -1.9540   -2.6995 H        1 ZINC001087843226    0.0600
50     H50    -3.3182   -1.6068   -2.5242 H        1 ZINC001087843226    0.0800
51     H51    -0.9329    1.3571   -1.6493 H        1 ZINC001087843226    0.1200
52     H52    -0.2706   -0.1039   -2.4208 H        1 ZINC001087843226    0.0700
53     H53    -4.0242    2.4052   -1.9378 H        1 ZINC001087843226    0.1000
54     H54    -2.3540    3.0188   -1.8913 H        1 ZINC001087843226    0.0900
55     H55    -3.5431    3.7570   -2.9911 H        1 ZINC001087843226    0.0900
@<TRIPOS>BOND
1     1     2     1
2     1     30    1
3     1     31    1
4     1     32    1
5     2     3     1
6     2     33    1
7     2     34    1
8     3     4     1
9     3     22    1
10    3     5     1
11    5     6     1
12    5     7     1
13    5     20    1
14    7     8     am
15    7     35    1
16    8     9     2
17    8     10    1
18    10    16    ar
19    10    11    ar
20    11    12    ar
21    11    36    1
22    12    13    ar
23    12    37    1
24    13    14    1
25    13    15    ar
26    14    38    1
27    14    39    1
28    14    40    1
29    15    19    1
30    15    16    ar
31    16    17    1
32    17    18    1
33    17    41    1
34    17    42    1
35    18    19    1
36    18    43    1
37    18    44    1
38    19    45    1
39    19    46    1
40    20    21    1
41    20    47    1
42    20    48    1
43    21    22    1
44    21    49    1
45    21    50    1
46    22    23    1
47    23    24    1
48    23    51    1
49    23    52    1
50    24    28    1
51    24    25    2
52    25    26    1
53    26    27    1
54    27    28    2
55    28    29    1
56    29    53    1
57    29    54    1
58    29    55    1
@<TRIPOS>SUBSTRUCTURE
1   ZINC001087843226 1     RESIDUE    1   A     ZIN   1
@<TRIPOS>MOLECULE
ZINC000154446008
43	45	1	0	0
SMALL
USER_CHARGES
@<TRIPOS>ATOM
1      O1      0.1451   -1.7683    1.4521 O.2      1 ZINC000154446008   -0.5000
2      C2      1.1763   -2.0723    0.8817 C.2      1 ZINC000154446008    0.5900
3      C3      2.2866   -2.6590    1.6378 C.2      1 ZINC000154446008   -0.2300
4      C4      2.1663   -3.3764    2.7946 C.2      1 ZINC000154446008   -0.0600
5      C5      3.3717   -3.8106    3.2929 C.2      1 ZINC000154446008   -0.0500
6      C6      4.4431   -3.4620    2.5709 C.2      1 ZINC000154446008   -0.2100
7      N7      5.8383   -3.8177    2.9147 N.pl3    1 ZINC000154446008    0.0500
8      O8      6.0710   -4.4718    3.9155 O.2      1 ZINC000154446008   -0.1300
9      O9      6.7535   -3.4562    2.1969 O.2      1 ZINC000154446008   -0.1500
10     S10     3.9859   -2.5589    1.1974 S.3      1 ZINC000154446008    0.3500
11     N11     1.2953   -1.8746   -0.4462 N.am     1 ZINC000154446008   -0.6100
12     C12     2.4548   -2.4012   -1.1798 C.3      1 ZINC000154446008    0.0800
13     C13     1.9488   -3.2772   -2.3325 C.3      1 ZINC000154446008    0.0900
14     N14     0.9212   -2.5317   -3.0728 N.am     1 ZINC000154446008   -0.6100
15     C15     1.0398   -2.3348   -4.4009 C.2      1 ZINC000154446008    0.5500
16     O16     0.2054   -1.6794   -4.9953 O.2      1 ZINC000154446008   -0.5300
17     C17     2.1785   -2.9125   -5.1313 C.2      1 ZINC000154446008   -0.1500
18     C18     2.4471   -4.1877   -4.9519 C.2      1 ZINC000154446008   -0.1100
19     C19     3.5817   -4.9045   -5.6240 C.3      1 ZINC000154446008   -0.1000
20     C20     4.0819   -4.0931   -6.8210 C.3      1 ZINC000154446008   -0.1200
21     C21     4.3194   -2.6483   -6.3647 C.3      1 ZINC000154446008   -0.1200
22     C22     2.9629   -2.0144   -6.0428 C.3      1 ZINC000154446008   -0.0700
23     C23    -0.2383   -2.0051   -2.3392 C.3      1 ZINC000154446008    0.1000
24     C24     0.2649   -1.1339   -1.1875 C.3      1 ZINC000154446008    0.1000
25     H25     1.2186   -3.5818    3.2700 H        1 ZINC000154446008    0.1800
26     H26     3.4484   -4.3903    4.2009 H        1 ZINC000154446008    0.1800
27     H27     3.0414   -1.5739   -1.5793 H        1 ZINC000154446008    0.0900
28     H28     3.0712   -2.9995   -0.5089 H        1 ZINC000154446008    0.0900
29     H29     2.7767   -3.5190   -2.9990 H        1 ZINC000154446008    0.1100
30     H30     1.5179   -4.1951   -1.9325 H        1 ZINC000154446008    0.0800
31     H31     1.8149   -4.7515   -4.2819 H        1 ZINC000154446008    0.1100
32     H32     4.3965   -5.0385   -4.9126 H        1 ZINC000154446008    0.0900
33     H33     3.2397   -5.8810   -5.9670 H        1 ZINC000154446008    0.0800
34     H34     5.0155   -4.5194   -7.1880 H        1 ZINC000154446008    0.0700
35     H35     3.3328   -4.1087   -7.6127 H        1 ZINC000154446008    0.0700
36     H36     4.9495   -2.6440   -5.4754 H        1 ZINC000154446008    0.0700
37     H37     4.8045   -2.0871   -7.1634 H        1 ZINC000154446008    0.0700
38     H38     2.4090   -1.8567   -6.9682 H        1 ZINC000154446008    0.0800
39     H39     3.1202   -1.0548   -5.5503 H        1 ZINC000154446008    0.0700
40     H40    -0.8547   -1.4068   -3.0101 H        1 ZINC000154446008    0.1100
41     H41    -0.8249   -2.8324   -1.9397 H        1 ZINC000154446008    0.0800
42     H42    -0.5639   -0.8929   -0.5219 H        1 ZINC000154446008    0.1100
43     H43     0.6969   -0.2156   -1.5851 H        1 ZINC000154446008    0.0800
@<TRIPOS>BOND
1     1     2     2
2     2     3     1
3     2     11    am
4     3     10    1
5     3     4     2
6     4     5     1
7     4     25    1
8     5     6     2
9     5     26    1
10    6     7     1
11    6     10    1
12    7     8     2
13    7     9     2
14    11    24    1
15    11    12    1
16    12    13    1
17    12    27    1
18    12    28    1
19    13    14    1
20    13    29    1
21    13    30    1
22    14    15    am
23    14    23    1
24    15    16    2
25    15    17    1
26    17    22    1
27    17    18    2
28    18    19    1
29    18    31    1
30    19    20    1
31    19    32    1
32    19    33    1
33    20    21    1
34    20    34    1
35    20    35    1
36    21    22    1
37    21    36    1
38    21    37    1
39    22    38    1
40    22    39    1
41    23    24    1
42    23    40    1
43    23    41    1
44    24    42    1
45    24    43    1
@<TRIPOS>SUBSTRUCTURE
1   ZINC000154446008 1     RESIDUE    1   A     ZIN   1
@<TRIPOS>MOLECULE
ZINC000328606936
45	47	0	0	0
SMALL
USER_CHARGES
@<TRIPOS>ATOM
1 C1       -0.0272     1.4930    -0.0060 C.3    1 <0>      -0.0500
2 N2        0.0611     0.0267    -0.0027 N.4    1 <0>      -0.3500
3 H3       -0.8677    -0.3662     0.0300 H      1 <0>       0.4200
4 C4        0.8214    -0.4154     1.1739 C.3    1 <0>      -0.0900
5 C5        0.0619    -0.0589     2.4258 C.2    1 <0>       0.4900
6 O6       -1.0131     0.5106     2.3452 O.co2  1 <0>      -0.6700
7 O7        0.5224    -0.3401     3.5191 O.co2  1 <0>      -0.6400
8 C8        0.7414    -0.4257    -1.2236 C.3    1 <0>       0.0100
9 H9        1.7428     0.0012    -1.2788 H      1 <0>       0.1600
10 C10      -0.0787    -0.0338    -2.4715 C.3    1 <0>       0.1000
11 N11       0.0852    -1.1761    -3.4005 N.am   1 <0>      -0.6200
12 C12       0.2512    -1.1373    -4.7374 C.2    1 <0>       0.6200
13 O13       0.2217    -0.0711    -5.3236 O.2    1 <0>      -0.5100
14 C14       0.4672    -2.3792    -5.4855 C.2    1 <0>      -0.2800
15 C15       0.7790    -2.4603    -6.8080 C.2    1 <0>      -0.0300
16 C16       0.9308    -3.7533    -7.2741 C.2    1 <0>      -0.1200
17 C17       0.7416    -4.7025    -6.3296 C.2    1 <0>      -0.1900
18 C18       0.8508    -6.1945    -6.5820 C.3    1 <0>      -0.0500
19 C19       0.7876    -6.4443    -8.0910 C.3    1 <0>      -0.1200
20 C20       1.7886    -5.5208    -8.7914 C.3    1 <0>      -0.1200
21 C21       1.2791    -4.0801    -8.7206 C.3    1 <0>      -0.0600
22 S22       0.3727    -4.0004    -4.8174 S.3    1 <0>       0.2000
23 C23       0.0253    -2.3708    -2.5265 C.3    1 <0>       0.0600
24 C24       0.8125    -1.9665    -1.2584 C.3    1 <0>       0.0800
25 H25       0.3418    -2.3875    -0.3700 H      1 <0>       0.1000
26 O26       2.1694    -2.4041    -1.3554 O.3    1 <0>      -0.5400
27 H27       0.9761     1.9174    -0.0413 H      1 <0>       0.1100
28 H28      -0.5914     1.8210    -0.8791 H      1 <0>       0.1100
29 H29      -0.5320     1.8286     0.8999 H      1 <0>       0.1600
30 H30       0.9633    -1.4952     1.1302 H      1 <0>       0.1200
31 H31       1.7930     0.0786     1.1854 H      1 <0>       0.1300
32 H32      -1.1290     0.0963    -2.2107 H      1 <0>       0.1000
33 H33       0.3190     0.8782    -2.9167 H      1 <0>       0.1200
34 H34       0.8970    -1.5911    -7.4381 H      1 <0>       0.1500
35 H35       1.7986    -6.5632    -6.1898 H      1 <0>       0.0900
36 H36       0.0248    -6.7095    -6.0914 H      1 <0>       0.0800
37 H37       1.0422    -7.4834    -8.2997 H      1 <0>       0.0700
38 H38      -0.2184    -6.2338    -8.4538 H      1 <0>       0.0700
39 H39       2.7567    -5.5900    -8.2952 H      1 <0>       0.0700
40 H40       1.8913    -5.8196    -9.8346 H      1 <0>       0.0700
41 H41       0.3908    -3.9757    -9.3436 H      1 <0>       0.0800
42 H42       2.0556    -3.4003    -9.0712 H      1 <0>       0.0800
43 H43      -1.0087    -2.6057    -2.2742 H      1 <0>       0.1000
44 H44       0.5015    -3.2220    -3.0131 H      1 <0>       0.1000
45 H45       2.2691    -3.3633    -1.4275 H      1 <0>       0.4000
@<TRIPOS>BOND
1    1    2 1
2    1   27 1
3    1   28 1
4    1   29 1
5    2    3 1
6    2    4 1
7    2    8 1
8    4    5 1
9    4   30 1
10    4   31 1
11    5    6 ar
12    5    7 ar
13    8    9 1
14    8   24 1
15    8   10 1
16   10   11 1
17   10   32 1
18   10   33 1
19   11   12 am
20   11   23 1
21   12   13 2
22   12   14 1
23   14   22 1
24   14   15 2
25   15   16 1
26   15   34 1
27   16   21 1
28   16   17 2
29   17   18 1
30   17   22 1
31   18   19 1
32   18   35 1
33   18   36 1
34   19   20 1
35   19   37 1
36   19   38 1
37   20   21 1
38   20   39 1
39   20   40 1
40   21   41 1
41   21   42 1
42   23   24 1
43   23   43 1
44   23   44 1
45   24   25 1
46   24   26 1
47   26   45 1
@<TRIPOS>MOLECULE
ZINC000550952205
51	54	1	0	0
SMALL
USER_CHARGES
@<TRIPOS>ATOM
1      O1      0.0159    0.0238   -0.0051 O.2      1 ZINC000550952205   -0.5100
2      C2     -0.0205    1.2274   -0.1561 C.2      1 ZINC000550952205    0.5100
3      N3      1.1225    1.9192   -0.3335 N.am     1 ZINC000550952205   -0.7000
4      C4      2.4089    1.2181   -0.3442 C.3      1 ZINC000550952205    0.1200
5      C5      3.5380    2.2275   -0.5611 C.3      1 ZINC000550952205   -0.0900
6      H6      3.3486    2.7991   -1.4698 H        1 ZINC000550952205    0.1000
7      C7      3.6146    3.1611    0.6165 C.3      1 ZINC000550952205   -0.1300
8      C8      4.0405    4.5856    0.2127 C.3      1 ZINC000550952205   -0.1200
9      C9      5.1750    4.5972   -0.8295 C.3      1 ZINC000550952205   -0.1300
10     C10     6.2351    3.5699   -0.5381 C.3      1 ZINC000550952205   -0.1500
11     C11     5.9069    2.2885   -1.3314 C.3      1 ZINC000550952205    0.3000
12     F12     5.4608    2.6478   -2.6078 F        1 ZINC000550952205   -0.2000
13     F13     7.0711    1.5231   -1.4577 F        1 ZINC000550952205   -0.2000
14     C14     4.8821    1.4819   -0.6888 C.3      1 ZINC000550952205   -0.1700
15     C15    -1.3321    1.9412   -0.1513 C.2      1 ZINC000550952205    0.5100
16     O16    -1.3685    3.1451   -0.3023 O.2      1 ZINC000550952205   -0.4900
17     N17    -2.4755    1.2487    0.0206 N.am     1 ZINC000550952205   -0.6400
18     C18    -3.6926    1.9266    0.1355 C.ar     1 ZINC000550952205    0.1500
19     C19    -4.8616    1.3511   -0.3599 C.ar     1 ZINC000550952205   -0.1200
20     C20    -6.0536    1.9993   -0.2550 C.ar     1 ZINC000550952205   -0.0400
21     C21    -6.1282    3.2669    0.3576 C.ar     1 ZINC000550952205    0.0800
22     N22    -7.1967    4.0626    0.5572 N.2      1 ZINC000550952205   -0.4700
23     C23    -7.0064    5.1825    1.1449 C.2      1 ZINC000550952205    0.1200
24     C24    -8.0963    6.1802    1.4413 C.3      1 ZINC000550952205   -0.1100
25     C25    -9.4762    5.9205    0.8335 C.3      1 ZINC000550952205   -0.1500
26     C26    -9.2510    5.7208    2.3336 C.3      1 ZINC000550952205   -0.1500
27     S27    -5.3644    5.4054    1.5523 S.3      1 ZINC000550952205    0.1200
28     C28    -4.9526    3.8419    0.8546 C.ar     1 ZINC000550952205   -0.1700
29     C29    -3.7396    3.1673    0.7464 C.ar     1 ZINC000550952205   -0.0700
30     H30     1.0935    2.8812   -0.4541 H        1 ZINC000550952205    0.4200
31     H31     2.5538    0.7102    0.6093 H        1 ZINC000550952205    0.0800
32     H32     2.4166    0.4854   -1.1511 H        1 ZINC000550952205    0.0800
33     H33     2.6358    3.2076    1.0939 H        1 ZINC000550952205    0.0700
34     H34     4.3357    2.7671    1.3326 H        1 ZINC000550952205    0.0700
35     H35     3.1772    5.1065   -0.2016 H        1 ZINC000550952205    0.0700
36     H36     4.3755    5.1180    1.1029 H        1 ZINC000550952205    0.0700
37     H37     4.7517    4.3976   -1.8139 H        1 ZINC000550952205    0.0800
38     H38     5.6348    5.5855   -0.8393 H        1 ZINC000550952205    0.0700
39     H39     7.2089    3.9513   -0.8452 H        1 ZINC000550952205    0.0900
40     H40     6.2458    3.3473    0.5289 H        1 ZINC000550952205    0.1000
41     H41     5.2235    1.2070    0.3092 H        1 ZINC000550952205    0.1000
42     H42     4.7317    0.5728   -1.2712 H        1 ZINC000550952205    0.1000
43     H43    -2.4539    0.2800    0.0645 H        1 ZINC000550952205    0.4300
44     H44    -4.8209    0.3807   -0.8323 H        1 ZINC000550952205    0.1400
45     H45    -6.9496    1.5391   -0.6446 H        1 ZINC000550952205    0.1400
46     H46    -7.7726    7.2172    1.5311 H        1 ZINC000550952205    0.1300
47     H47   -10.0606    6.7867    0.5232 H        1 ZINC000550952205    0.1000
48     H48    -9.5957    5.0280    0.2193 H        1 ZINC000550952205    0.1100
49     H49    -9.2225    4.6969    2.7064 H        1 ZINC000550952205    0.1000
50     H50    -9.6874    6.4556    3.0103 H        1 ZINC000550952205    0.1100
51     H51    -2.8364    3.6128    1.1363 H        1 ZINC000550952205    0.1400
@<TRIPOS>BOND
1     1     2     2
2     2     3     am
3     2     15    1
4     3     4     1
5     3     30    1
6     4     5     1
7     4     31    1
8     4     32    1
9     5     6     1
10    5     14    1
11    5     7     1
12    7     8     1
13    7     33    1
14    7     34    1
15    8     9     1
16    8     35    1
17    8     36    1
18    9     10    1
19    9     37    1
20    9     38    1
21    10    11    1
22    10    39    1
23    10    40    1
24    11    12    1
25    11    13    1
26    11    14    1
27    14    41    1
28    14    42    1
29    15    16    2
30    15    17    am
31    17    18    1
32    17    43    1
33    18    29    ar
34    18    19    ar
35    19    20    ar
36    19    44    1
37    20    21    ar
38    20    45    1
39    21    28    ar
40    21    22    1
41    22    23    2
42    23    24    1
43    23    27    1
44    24    26    1
45    24    25    1
46    24    46    1
47    25    26    1
48    25    47    1
49    25    48    1
50    26    49    1
51    26    50    1
52    27    28    1
53    28    29    ar
54    29    51    1
@<TRIPOS>SUBSTRUCTURE
1   ZINC000550952205 1     RESIDUE    1   A     ZIN   1
@<TRIPOS>MOLECULE
ZINC001000186632
41	43	1	0	0
SMALL
USER_CHARGES
@<TRIPOS>ATOM
1      O1      0.0021   -0.0041    0.0020 O.2      1 ZINC001000186632   -0.5200
2      C2     -0.0144    1.2086    0.0087 C.2      1 ZINC001000186632    0.5300
3      C3      1.2803    1.9798    0.0005 C.3      1 ZINC001000186632   -0.0500
4      C4      2.4389    1.0162   -0.0158 C.2      1 ZINC001000186632    0.2400
5      N5      3.0293    0.5204    1.0398 N.2      1 ZINC001000186632   -0.3000
6      N6      4.0488   -0.3261    0.5744 N.pl3    1 ZINC001000186632   -0.4800
7      C7      3.9974   -0.2779   -0.7680 C.2      1 ZINC001000186632    0.2700
8      N8      3.0238    0.5270   -1.1084 N.2      1 ZINC001000186632   -0.5400
9      N9     -1.1906    1.8666    0.0178 N.am     1 ZINC001000186632   -0.7100
10     C10    -2.4492    1.1169    0.0197 C.3      1 ZINC001000186632    0.1100
11     C11    -3.2021    1.1731    1.3614 C.3      1 ZINC001000186632    0.1000
12     N12    -3.8843    2.3618    0.8140 N.am     1 ZINC001000186632   -0.6500
13     C13    -4.4893    3.4371    1.3565 C.2      1 ZINC001000186632    0.5100
14     O14    -4.5440    3.5582    2.5621 O.2      1 ZINC001000186632   -0.5100
15     C15    -5.0977    4.4889    0.4652 C.3      1 ZINC001000186632    0.1500
16     N16    -5.6888    5.5456    1.2900 N.am     1 ZINC001000186632   -0.9800
17     C17    -7.0346    5.5371    1.8829 C.3      1 ZINC001000186632    0.0800
18     C18    -7.0459    6.3637    3.1830 C.3      1 ZINC001000186632   -0.1300
19     C19    -6.2681    7.6616    2.8199 C.3      1 ZINC001000186632   -0.6000
20     S20    -4.9557    6.9783    1.7361 S.o2     1 ZINC001000186632    2.5700
21     O21    -3.8121    6.5980    2.4890 O.2      1 ZINC001000186632   -0.9400
22     O22    -4.8446    7.7219    0.5303 O.2      1 ZINC001000186632   -0.9600
23     C23    -3.6381    1.9002   -0.5659 C.3      1 ZINC001000186632    0.0900
24     H24     1.3211    2.6120   -0.8866 H        1 ZINC001000186632    0.1300
25     H25     1.3381    2.6024    0.8933 H        1 ZINC001000186632    0.1200
26     H26     4.6673   -0.8426    1.1144 H        1 ZINC001000186632    0.4400
27     H27     4.6447   -0.8131   -1.4471 H        1 ZINC001000186632    0.2200
28     H28    -1.2037    2.8365    0.0232 H        1 ZINC001000186632    0.4100
29     H29    -2.3449    0.1102   -0.3850 H        1 ZINC001000186632    0.1200
30     H30    -3.8651    0.3243    1.5290 H        1 ZINC001000186632    0.1000
31     H31    -2.5612    1.3891    2.2161 H        1 ZINC001000186632    0.0900
32     H32    -4.3242    4.9161   -0.1730 H        1 ZINC001000186632    0.1100
33     H33    -5.8715    4.0364   -0.1549 H        1 ZINC001000186632    0.1100
34     H34    -7.7438    5.9669    1.1755 H        1 ZINC001000186632    0.0800
35     H35    -7.3250    4.5103    2.1051 H        1 ZINC001000186632    0.0900
36     H36    -8.0688    6.6013    3.4747 H        1 ZINC001000186632    0.1100
37     H37    -6.5362    5.8248    3.9817 H        1 ZINC001000186632    0.1000
38     H38    -6.9037    8.3632    2.2797 H        1 ZINC001000186632    0.1400
39     H39    -5.8397    8.1253    3.7085 H        1 ZINC001000186632    0.1400
40     H40    -3.3452    2.6967   -1.2499 H        1 ZINC001000186632    0.0900
41     H41    -4.4292    1.2650   -0.9645 H        1 ZINC001000186632    0.1100
@<TRIPOS>BOND
1     1     2     2
2     2     3     1
3     2     9     am
4     3     4     1
5     3     24    1
6     3     25    1
7     4     8     1
8     4     5     2
9     5     6     1
10    6     7     1
11    6     26    1
12    7     8     2
13    7     27    1
14    9     10    1
15    9     28    1
16    10    23    1
17    10    11    1
18    10    29    1
19    11    12    1
20    11    30    1
21    11    31    1
22    12    13    am
23    12    23    1
24    13    14    2
25    13    15    1
26    15    16    1
27    15    32    1
28    15    33    1
29    16    20    am
30    16    17    1
31    17    18    1
32    17    34    1
33    17    35    1
34    18    19    1
35    18    36    1
36    18    37    1
37    19    20    1
38    19    38    1
39    19    39    1
40    20    21    2
41    20    22    2
42    23    40    1
43    23    41    1
@<TRIPOS>SUBSTRUCTURE
1   ZINC001000186632 1     RESIDUE    1   A     ZIN   1
@<TRIPOS>MOLECULE
ZINC000442010511
57	59	1	0	0
SMALL
USER_CHARGES
@<TRIPOS>ATOM
1      C1     -1.7635   -0.4343    0.0391 C.3      1 ZINC000442010511   -0.1500
2      C2     -1.1801   -1.8167   -0.2600 C.3      1 ZINC000442010511   -0.0500
3      C3     -0.1651   -1.7046   -1.3683 C.2      1 ZINC000442010511    0.0000
4      C4      1.1514   -1.4792   -1.2094 C.2      1 ZINC000442010511   -0.2100
5      C5      1.7210   -1.4499   -2.5031 C.2      1 ZINC000442010511   -0.1900
6      C6      0.7185   -1.6592   -3.3751 C.2      1 ZINC000442010511   -0.0300
7      C7      0.8521   -1.7130   -4.8752 C.3      1 ZINC000442010511    0.2400
8      H8      1.7762   -1.2192   -5.1756 H        1 ZINC000442010511    0.1400
9      C9      0.8818   -3.1727   -5.3326 C.3      1 ZINC000442010511    0.0500
10     O10    -0.2755   -3.8502   -4.8389 O.3      1 ZINC000442010511   -0.3800
11     C11    -0.3456   -5.2280   -5.2115 C.3      1 ZINC000442010511    0.0300
12     N12    -0.2886   -1.0312   -5.4919 N.am     1 ZINC000442010511   -0.6900
13     C13    -0.1724   -0.5066   -6.7279 C.2      1 ZINC000442010511    0.5200
14     O14     0.8772   -0.5991   -7.3301 O.2      1 ZINC000442010511   -0.5100
15     C15    -1.3351    0.1884   -7.3565 C.2      1 ZINC000442010511    0.5100
16     O16    -2.3849    0.2809   -6.7541 O.2      1 ZINC000442010511   -0.5000
17     N17    -1.2189    0.7129   -8.5925 N.am     1 ZINC000442010511   -0.6300
18     C18    -2.3176    1.3344   -9.1946 C.ar     1 ZINC000442010511    0.1200
19     C19    -3.3465    1.8390   -8.4123 C.ar     1 ZINC000442010511   -0.1000
20     C20    -4.4312    2.4527   -9.0098 C.ar     1 ZINC000442010511   -0.1300
21     C21    -4.4946    2.5657  -10.3864 C.ar     1 ZINC000442010511   -0.0900
22     C22    -3.4737    2.0651  -11.1731 C.ar     1 ZINC000442010511   -0.1700
23     C23    -2.3796    1.4539  -10.5824 C.ar     1 ZINC000442010511    0.1000
24     O24    -1.3751    0.9612  -11.3544 O.3      1 ZINC000442010511   -0.2600
25     C25    -1.4322    1.1831  -12.6937 C.ar     1 ZINC000442010511    0.0800
26     C26    -1.1360    2.4393  -13.2033 C.ar     1 ZINC000442010511   -0.1300
27     C27    -1.1944    2.6622  -14.5653 C.ar     1 ZINC000442010511   -0.1100
28     C28    -1.5482    1.6349  -15.4206 C.ar     1 ZINC000442010511   -0.0800
29     C29    -1.6116    1.8811  -16.9060 C.3      1 ZINC000442010511   -0.1200
30     C30    -1.8434    0.3821  -14.9155 C.ar     1 ZINC000442010511   -0.1100
31     C31    -1.7814    0.1525  -13.5547 C.ar     1 ZINC000442010511   -0.1100
32     O32    -0.4207   -1.8185   -2.6818 O.3      1 ZINC000442010511   -0.1600
33     H33    -0.9633    0.2391    0.3460 H        1 ZINC000442010511    0.0600
34     H34    -2.2452   -0.0418   -0.8564 H        1 ZINC000442010511    0.0600
35     H35    -2.4976   -0.5154    0.8407 H        1 ZINC000442010511    0.0700
36     H36    -0.6984   -2.2093    0.6355 H        1 ZINC000442010511    0.0900
37     H37    -1.9803   -2.4902   -0.5669 H        1 ZINC000442010511    0.0800
38     H38     1.6732   -1.3456   -0.2733 H        1 ZINC000442010511    0.1500
39     H39     2.7614   -1.2898   -2.7448 H        1 ZINC000442010511    0.1500
40     H40     0.8889   -3.2121   -6.4218 H        1 ZINC000442010511    0.0700
41     H41     1.7787   -3.6565   -4.9456 H        1 ZINC000442010511    0.0700
42     H42    -1.2520   -5.6705   -4.7983 H        1 ZINC000442010511    0.0900
43     H43    -0.3639   -5.3100   -6.2982 H        1 ZINC000442010511    0.0400
44     H44     0.5258   -5.7544   -4.8220 H        1 ZINC000442010511    0.0400
45     H45    -1.1275   -0.9572   -5.0105 H        1 ZINC000442010511    0.4200
46     H46    -0.3732    0.6593   -9.0645 H        1 ZINC000442010511    0.4300
47     H47    -3.3000    1.7520   -7.3368 H        1 ZINC000442010511    0.1600
48     H48    -5.2316    2.8448   -8.3998 H        1 ZINC000442010511    0.1300
49     H49    -5.3443    3.0461  -10.8485 H        1 ZINC000442010511    0.1300
50     H50    -3.5270    2.1545  -12.2480 H        1 ZINC000442010511    0.1300
51     H51    -0.8603    3.2422  -12.5356 H        1 ZINC000442010511    0.1300
52     H52    -0.9639    3.6397  -14.9625 H        1 ZINC000442010511    0.1300
53     H53    -0.6386    1.6722  -17.3508 H        1 ZINC000442010511    0.0700
54     H54    -2.3622    1.2278  -17.3509 H        1 ZINC000442010511    0.0700
55     H55    -1.8798    2.9213  -17.0908 H        1 ZINC000442010511    0.0700
56     H56    -2.1195   -0.4185  -15.5857 H        1 ZINC000442010511    0.1300
57     H57    -2.0119   -0.8263  -13.1607 H        1 ZINC000442010511    0.1300
@<TRIPOS>BOND
1     1     2     1
2     1     33    1
3     1     34    1
4     1     35    1
5     2     3     1
6     2     36    1
7     2     37    1
8     3     32    1
9     3     4     2
10    4     5     1
11    4     38    1
12    5     6     2
13    5     39    1
14    6     7     1
15    6     32    1
16    7     8     1
17    7     9     1
18    7     12    1
19    9     10    1
20    9     40    1
21    9     41    1
22    10    11    1
23    11    42    1
24    11    43    1
25    11    44    1
26    12    13    am
27    12    45    1
28    13    14    2
29    13    15    1
30    15    16    2
31    15    17    am
32    17    18    1
33    17    46    1
34    18    23    ar
35    18    19    ar
36    19    20    ar
37    19    47    1
38    20    21    ar
39    20    48    1
40    21    22    ar
41    21    49    1
42    22    23    ar
43    22    50    1
44    23    24    1
45    24    25    1
46    25    31    ar
47    25    26    ar
48    26    27    ar
49    26    51    1
50    27    28    ar
51    27    52    1
52    28    29    1
53    28    30    ar
54    29    53    1
55    29    54    1
56    29    55    1
57    30    31    ar
58    30    56    1
59    31    57    1
@<TRIPOS>SUBSTRUCTURE
1   ZINC000442010511 1     RESIDUE    1   A     ZIN   1
@<TRIPOS>MOLECULE
ZINC000028372981
52	54	1	0	0
SMALL
USER_CHARGES
@<TRIPOS>ATOM
1      C1     -8.0777    7.8143   -0.2535 C.3      1 ZINC000028372981   -0.1800
2      C2     -7.9511    9.1759    0.3797 C.2      1 ZINC000028372981    0.5200
3      O3     -8.9393    9.8558    0.5584 O.2      1 ZINC000028372981   -0.5100
4      N4     -6.7396    9.6381    0.7473 N.am     1 ZINC000028372981   -0.5500
5      C5     -6.4928   10.9412    1.3698 C.3      1 ZINC000028372981    0.1000
6      C6     -4.9730   11.0000    1.5944 C.3      1 ZINC000028372981   -0.0900
7      C7     -4.4602    9.6799    1.0633 C.ar     1 ZINC000028372981   -0.1500
8      C8     -3.1835    9.1679    1.0033 C.ar     1 ZINC000028372981    0.0000
9      C9     -2.9626    7.9023    0.4524 C.ar     1 ZINC000028372981   -0.1600
10     C10    -1.5967    7.3513    0.3809 C.2      1 ZINC000028372981    0.5200
11     O11    -0.6574    8.0001    0.7972 O.2      1 ZINC000028372981   -0.5000
12     O12    -1.3901    6.1285   -0.1460 O.3      1 ZINC000028372981   -0.3200
13     C13    -0.0198    5.6500   -0.1841 C.3      1 ZINC000028372981    0.0700
14     H14     0.5374    6.0768    0.6499 H        1 ZINC000028372981    0.1200
15     C15     0.6317    6.0729   -1.5023 C.3      1 ZINC000028372981   -0.1700
16     C16    -0.0095    4.1467   -0.0782 C.2      1 ZINC000028372981    0.5200
17     O17    -1.0550    3.5321   -0.0717 O.2      1 ZINC000028372981   -0.4900
18     N18     1.1616    3.4853    0.0092 N.am     1 ZINC000028372981   -0.6600
19     C19     1.1780    2.0863   -0.0090 C.ar     1 ZINC000028372981    0.1500
20     C20     0.1409    1.3861   -0.6109 C.ar     1 ZINC000028372981   -0.1300
21     C21     0.1603    0.0050   -0.6276 C.ar     1 ZINC000028372981   -0.1000
22     C22     1.2112   -0.6801   -0.0463 C.ar     1 ZINC000028372981   -0.1300
23     C23     2.2459    0.0143    0.5536 C.ar     1 ZINC000028372981   -0.0700
24     C24     3.3895   -0.7365    1.1855 C.3      1 ZINC000028372981   -0.1200
25     C25     2.2320    1.3950    0.5745 C.ar     1 ZINC000028372981   -0.1200
26     C26     3.3593    2.1509    1.2292 C.3      1 ZINC000028372981   -0.1200
27     C27    -4.0470    7.1604   -0.0250 C.ar     1 ZINC000028372981   -0.0200
28     C28    -5.3182    7.6769    0.0438 C.ar     1 ZINC000028372981   -0.1800
29     C29    -5.5404    8.9457    0.5900 C.ar     1 ZINC000028372981    0.1900
30     H30    -7.7051    7.0568    0.4360 H        1 ZINC000028372981    0.1000
31     H31    -9.1251    7.6152   -0.4806 H        1 ZINC000028372981    0.1000
32     H32    -7.4946    7.7860   -1.1740 H        1 ZINC000028372981    0.1000
33     H33    -6.8077   11.7442    0.7033 H        1 ZINC000028372981    0.0900
34     H34    -7.0187   11.0110    2.3219 H        1 ZINC000028372981    0.0900
35     H35    -4.5378   11.8293    1.0368 H        1 ZINC000028372981    0.1000
36     H36    -4.7490   11.0976    2.6567 H        1 ZINC000028372981    0.1000
37     H37    -2.3519    9.7460    1.3781 H        1 ZINC000028372981    0.1400
38     H38     0.0745    5.6461   -2.3363 H        1 ZINC000028372981    0.0800
39     H39     0.6242    7.1602   -1.5789 H        1 ZINC000028372981    0.0800
40     H40     1.6604    5.7137   -1.5309 H        1 ZINC000028372981    0.0800
41     H41     1.9930    3.9792    0.0848 H        1 ZINC000028372981    0.4100
42     H42    -0.6778    1.9209   -1.0694 H        1 ZINC000028372981    0.1400
43     H43    -0.6460   -0.5401   -1.0956 H        1 ZINC000028372981    0.1300
44     H44     1.2242   -1.7600   -0.0610 H        1 ZINC000028372981    0.1200
45     H45     4.1714   -0.8993    0.4437 H        1 ZINC000028372981    0.0700
46     H46     3.7913   -0.1552    2.0154 H        1 ZINC000028372981    0.0700
47     H47     3.0330   -1.6982    1.5546 H        1 ZINC000028372981    0.0700
48     H48     4.1378    2.3518    0.4932 H        1 ZINC000028372981    0.0700
49     H49     2.9825    3.0936    1.6260 H        1 ZINC000028372981    0.0600
50     H50     3.7731    1.5541    2.0420 H        1 ZINC000028372981    0.0800
51     H51    -3.8852    6.1800   -0.4480 H        1 ZINC000028372981    0.1500
52     H52    -6.1522    7.0994   -0.3269 H        1 ZINC000028372981    0.1500
@<TRIPOS>BOND
1     1     2     1
2     1     30    1
3     1     31    1
4     1     32    1
5     2     3     2
6     2     4     am
7     4     29    1
8     4     5     1
9     5     6     1
10    5     33    1
11    5     34    1
12    6     7     1
13    6     35    1
14    6     36    1
15    7     29    ar
16    7     8     ar
17    8     9     ar
18    8     37    1
19    9     10    1
20    9     27    ar
21    10    11    2
22    10    12    1
23    12    13    1
24    13    14    1
25    13    15    1
26    13    16    1
27    15    38    1
28    15    39    1
29    15    40    1
30    16    17    2
31    16    18    am
32    18    19    1
33    18    41    1
34    19    25    ar
35    19    20    ar
36    20    21    ar
37    20    42    1
38    21    22    ar
39    21    43    1
40    22    23    ar
41    22    44    1
42    23    24    1
43    23    25    ar
44    24    45    1
45    24    46    1
46    24    47    1
47    25    26    1
48    26    48    1
49    26    49    1
50    26    50    1
51    27    28    ar
52    27    51    1
53    28    29    ar
54    28    52    1
@<TRIPOS>SUBSTRUCTURE
1   ZINC000028372981 1     RESIDUE    1   A     ZIN   1
@<TRIPOS>MOLECULE
ZINC000274267583
43	45	1	0	0
SMALL
USER_CHARGES
@<TRIPOS>ATOM
1      C1     -2.7932   -4.3469   -2.8333 C.3      1 ZINC000274267583    0.0200
2      O2     -1.7356   -5.2968   -2.9787 O.3      1 ZINC000274267583   -0.3100
3      C3     -0.5812   -4.8533   -3.5424 C.ar     1 ZINC000274267583    0.1900
4      C4     -0.4668   -3.5297   -3.9420 C.ar     1 ZINC000274267583   -0.2300
5      C5      0.7079   -3.0813   -4.5143 C.ar     1 ZINC000274267583    0.0300
6      C6      1.7688   -3.9505   -4.6894 C.ar     1 ZINC000274267583   -0.7200
7      S7      3.2654   -3.3756   -5.4202 S.o2     1 ZINC000274267583    2.7000
8      O8      3.9712   -4.5311   -5.8515 O.2      1 ZINC000274267583   -0.9500
9      O9      2.9038   -2.3147   -6.2937 O.2      1 ZINC000274267583   -0.9500
10     N10     4.1723   -2.6978   -4.2117 N.am     1 ZINC000274267583   -1.1100
11     C11     4.6440   -3.5247   -3.0981 C.3      1 ZINC000274267583    0.2100
12     H12     3.9902   -4.3896   -2.9864 H        1 ZINC000274267583    0.1000
13     C13     6.0710   -3.9985   -3.3845 C.3      1 ZINC000274267583   -0.1800
14     C14     6.6453   -4.6041   -2.0974 C.3      1 ZINC000274267583    0.0600
15     O15     6.7476   -3.5686   -1.1191 O.3      1 ZINC000274267583   -0.3100
16     C16     5.6591   -2.7810   -0.9118 C.ar     1 ZINC000274267583    0.1100
17     C17     5.5992   -2.0280    0.2560 C.ar     1 ZINC000274267583   -0.1100
18     C18     4.5143   -1.2118    0.5030 C.ar     1 ZINC000274267583   -0.1600
19     C19     3.4789   -1.1411   -0.4168 C.ar     1 ZINC000274267583    0.0900
20     O20     2.4095   -0.3358   -0.1782 O.3      1 ZINC000274267583   -0.3200
21     C21     2.4181    0.4100    1.0408 C.3      1 ZINC000274267583    0.0300
22     C22     3.5363   -1.8925   -1.5797 C.ar     1 ZINC000274267583   -0.1000
23     C23     4.6243   -2.7134   -1.8274 C.ar     1 ZINC000274267583   -0.1400
24     C24     1.6574   -5.2700   -4.2916 C.ar     1 ZINC000274267583    0.0200
25     C25     0.4867   -5.7221   -3.7140 C.ar     1 ZINC000274267583   -0.1700
26     H26    -2.4575   -3.5229   -2.2037 H        1 ZINC000274267583    0.0600
27     H27    -3.0746   -3.9635   -3.8141 H        1 ZINC000274267583    0.0600
28     H28    -3.6543   -4.8298   -2.3713 H        1 ZINC000274267583    0.1100
29     H29    -1.2954   -2.8506   -3.8061 H        1 ZINC000274267583    0.1400
30     H30     0.7974   -2.0510   -4.8255 H        1 ZINC000274267583    0.1400
31     H31     4.3911   -1.7532   -4.2410 H        1 ZINC000274267583    0.4200
32     H32     6.0567   -4.7530   -4.1710 H        1 ZINC000274267583    0.1000
33     H33     6.6831   -3.1526   -3.6974 H        1 ZINC000274267583    0.0900
34     H34     5.9822   -5.3889   -1.7333 H        1 ZINC000274267583    0.0700
35     H35     7.6329   -5.0202   -2.2963 H        1 ZINC000274267583    0.1200
36     H36     6.4052   -2.0826    0.9728 H        1 ZINC000274267583    0.1400
37     H37     4.4715   -0.6293    1.4114 H        1 ZINC000274267583    0.1400
38     H38     2.4623   -0.2764    1.8864 H        1 ZINC000274267583    0.0600
39     H39     3.2886    1.0658    1.0593 H        1 ZINC000274267583    0.0600
40     H40     1.5101    1.0094    1.1064 H        1 ZINC000274267583    0.1000
41     H41     2.7298   -1.8376   -2.2958 H        1 ZINC000274267583    0.1300
42     H42     2.4876   -5.9470   -4.4291 H        1 ZINC000274267583    0.1500
43     H43     0.4002   -6.7528   -3.4034 H        1 ZINC000274267583    0.1400
@<TRIPOS>BOND
1     1     2     1
2     1     26    1
3     1     27    1
4     1     28    1
5     2     3     1
6     3     25    ar
7     3     4     ar
8     4     5     ar
9     4     29    1
10    5     6     ar
11    5     30    1
12    6     7     1
13    6     24    ar
14    7     8     2
15    7     9     2
16    7     10    am
17    10    11    1
18    10    31    1
19    11    12    1
20    11    23    1
21    11    13    1
22    13    14    1
23    13    32    1
24    13    33    1
25    14    15    1
26    14    34    1
27    14    35    1
28    15    16    1
29    16    23    ar
30    16    17    ar
31    17    18    ar
32    17    36    1
33    18    19    ar
34    18    37    1
35    19    20    1
36    19    22    ar
37    20    21    1
38    21    38    1
39    21    39    1
40    21    40    1
41    22    23    ar
42    22    41    1
43    24    25    ar
44    24    42    1
45    25    43    1
@<TRIPOS>SUBSTRUCTURE
1   ZINC000274267583 1     RESIDUE    1   A     ZIN   1
@<TRIPOS>MOLECULE
ZINC000883773972
48	50	1	0	0
SMALL
USER_CHARGES
@<TRIPOS>ATOM
1      C1     -0.0184    1.5028    0.0103 C.3      1 ZINC000883773972   -0.1700
2      C2      0.0021   -0.0041    0.0020 C.2      1 ZINC000883773972    0.5300
3      O3      1.0605   -0.5961   -0.0113 O.2      1 ZINC000883773972   -0.5400
4      N4     -1.1558   -0.6938    0.0094 N.am     1 ZINC000883773972   -0.6200
5      C5     -2.5157   -0.1300    0.0189 C.3      1 ZINC000883773972    0.1100
6      C6     -3.4041   -1.1278   -0.7425 C.3      1 ZINC000883773972   -0.1100
7      H7     -3.6297   -0.7825   -1.7514 H        1 ZINC000883773972    0.1000
8      C8     -4.6820   -1.3954    0.0702 C.3      1 ZINC000883773972    0.1300
9      N9     -4.8456   -2.8576    0.1169 N.am     1 ZINC000883773972   -0.6400
10     C10    -6.0086   -3.5367    0.1713 C.2      1 ZINC000883773972    0.7300
11     O11    -7.0644   -2.9339    0.1859 O.2      1 ZINC000883773972   -0.5800
12     N12    -6.0011   -4.8839    0.2096 N.am     1 ZINC000883773972   -0.7400
13     C13    -7.2652   -5.6220    0.2687 C.3      1 ZINC000883773972    0.1800
14     H14    -7.9846   -5.0602    0.8646 H        1 ZINC000883773972    0.1100
15     C15    -7.8113   -5.8052   -1.1443 C.3      1 ZINC000883773972   -0.1500
16     C16    -9.2383   -6.3442   -1.1038 C.3      1 ZINC000883773972   -0.1000
17     C17    -9.2356   -7.7956   -0.6184 C.3      1 ZINC000883773972   -0.5600
18     H18    -8.5871   -8.3932   -1.2590 H        1 ZINC000883773972    0.1400
19     C19   -10.6591   -8.3543   -0.6669 C.3      1 ZINC000883773972   -0.1400
20     S20    -8.6177   -7.8469    1.0892 S.o2     1 ZINC000883773972    2.4200
21     O21    -9.4740   -7.0607    1.9065 O.2      1 ZINC000883773972   -0.9200
22     O22    -8.3695   -9.2007    1.4425 O.2      1 ZINC000883773972   -0.9300
23     C23    -7.0261   -6.9879    0.9160 C.3      1 ZINC000883773972   -0.6300
24     C24    -3.4909   -3.4334    0.0926 C.3      1 ZINC000883773972    0.1100
25     C25    -2.6117   -2.4582   -0.7493 C.3      1 ZINC000883773972   -0.1100
26     H26    -2.4289   -2.8409   -1.7534 H        1 ZINC000883773972    0.1000
27     C27    -1.3078   -2.1580    0.0030 C.3      1 ZINC000883773972    0.1100
28     H28     1.0042    1.8801    0.0026 H        1 ZINC000883773972    0.0900
29     H29    -0.5455    1.8639   -0.8728 H        1 ZINC000883773972    0.0900
30     H30    -0.5286    1.8543    0.9071 H        1 ZINC000883773972    0.0900
31     H31    -2.8686   -0.0217    1.0445 H        1 ZINC000883773972    0.0800
32     H32    -2.5233    0.8371   -0.4840 H        1 ZINC000883773972    0.0900
33     H33    -4.5733   -0.9986    1.0796 H        1 ZINC000883773972    0.0700
34     H34    -5.5407   -0.9383   -0.4215 H        1 ZINC000883773972    0.0900
35     H35    -5.1588   -5.3648    0.1979 H        1 ZINC000883773972    0.4000
36     H36    -7.8047   -4.8446   -1.6593 H        1 ZINC000883773972    0.0900
37     H37    -7.1774   -6.5070   -1.6862 H        1 ZINC000883773972    0.0800
38     H38    -9.8354   -5.7365   -0.4240 H        1 ZINC000883773972    0.0900
39     H39    -9.6710   -6.2978   -2.1032 H        1 ZINC000883773972    0.0900
40     H40   -11.0300   -8.3152   -1.6911 H        1 ZINC000883773972    0.0800
41     H41   -10.6557   -9.3879   -0.3209 H        1 ZINC000883773972    0.0700
42     H42   -11.3056   -7.7578   -0.0232 H        1 ZINC000883773972    0.0800
43     H43    -6.3588   -7.5793    0.2889 H        1 ZINC000883773972    0.1400
44     H44    -6.5772   -6.8497    1.8996 H        1 ZINC000883773972    0.1400
45     H45    -3.1016   -3.5169    1.1072 H        1 ZINC000883773972    0.0800
46     H46    -3.5096   -4.4138   -0.3834 H        1 ZINC000883773972    0.0800
47     H47    -0.4675   -2.6380   -0.4986 H        1 ZINC000883773972    0.0900
48     H48    -1.3802   -2.5096    1.0322 H        1 ZINC000883773972    0.0700
@<TRIPOS>BOND
1     1     2     1
2     1     28    1
3     1     29    1
4     1     30    1
5     2     3     2
6     2     4     am
7     4     27    1
8     4     5     1
9     5     6     1
10    5     31    1
11    5     32    1
12    6     7     1
13    6     25    1
14    6     8     1
15    8     9     1
16    8     33    1
17    8     34    1
18    9     10    am
19    9     24    1
20    10    11    2
21    10    12    am
22    12    13    1
23    12    35    1
24    13    14    1
25    13    23    1
26    13    15    1
27    15    16    1
28    15    36    1
29    15    37    1
30    16    17    1
31    16    38    1
32    16    39    1
33    17    18    1
34    17    19    1
35    17    20    1
36    19    40    1
37    19    41    1
38    19    42    1
39    20    21    2
40    20    22    2
41    20    23    1
42    23    43    1
43    23    44    1
44    24    25    1
45    24    45    1
46    24    46    1
47    25    26    1
48    25    27    1
49    27    47    1
50    27    48    1
@<TRIPOS>SUBSTRUCTURE
1   ZINC000883773972 1     RESIDUE    1   A     ZIN   1
@<TRIPOS>MOLECULE
ZINC001173835973
43	46	1	0	0
SMALL
USER_CHARGES
@<TRIPOS>ATOM
1      C1     -5.4547    0.8301    2.4419 C.3      1 ZINC001173835973   -0.1700
2      C2     -5.0566   -0.5914    2.1386 C.2      1 ZINC001173835973    0.5100
3      O3     -5.6247   -1.2062    1.2609 O.2      1 ZINC001173835973   -0.5200
4      N4     -4.0692   -1.1795    2.8426 N.am     1 ZINC001173835973   -0.6800
5      C5     -3.7788   -2.5337    2.6435 C.ar     1 ZINC001173835973    0.1800
6      C6     -3.3667   -3.3207    3.7114 C.ar     1 ZINC001173835973   -0.1900
7      C7     -3.0796   -4.6584    3.5160 C.ar     1 ZINC001173835973   -0.0600
8      C8     -3.2018   -5.2177    2.2591 C.ar     1 ZINC001173835973   -0.1900
9      C9     -3.6138   -4.4357    1.1860 C.ar     1 ZINC001173835973    0.2200
10     N10    -3.7371   -5.0015   -0.0845 N.pl3    1 ZINC001173835973   -0.6900
11     C11    -3.8499   -6.3897   -0.2245 C.ar     1 ZINC001173835973    0.0400
12     C12    -2.7617   -7.1230   -0.5960 C.ar     1 ZINC001173835973    0.2400
13     N13    -1.5408   -6.4818   -0.8344 N.pl3    1 ZINC001173835973   -0.8600
14     C14    -2.8605   -8.5707   -0.7464 C.ar     1 ZINC001173835973   -0.1100
15     C15    -1.7433   -9.3312   -1.1282 C.ar     1 ZINC001173835973   -0.0600
16     C16    -1.8936  -10.6858   -1.2535 C.ar     1 ZINC001173835973   -0.1700
17     C17    -3.1298  -11.2699   -1.0041 C.ar     1 ZINC001173835973    0.1200
18     N18    -4.1700  -10.5514   -0.6473 N.ar     1 ZINC001173835973   -0.4400
19     C19    -4.0866   -9.2302   -0.5086 C.ar     1 ZINC001173835973    0.1900
20     C20    -5.2577   -8.4411   -0.1088 C.ar     1 ZINC001173835973    0.1300
21     N21    -6.4289   -9.0294    0.1236 N.ar     1 ZINC001173835973   -0.4400
22     C22    -7.4851   -8.3354    0.4821 C.ar     1 ZINC001173835973    0.1000
23     C23    -7.4305   -6.9554    0.6357 C.ar     1 ZINC001173835973   -0.1500
24     C24    -6.2546   -6.2916    0.4113 C.ar     1 ZINC001173835973   -0.0700
25     C25    -5.1292   -7.0418    0.0339 C.ar     1 ZINC001173835973   -0.0400
26     C26    -3.9078   -3.0931    1.3803 C.ar     1 ZINC001173835973   -0.1900
27     H27    -6.2633    1.1309    1.7757 H        1 ZINC001173835973    0.1000
28     H28    -5.7910    0.9004    3.4763 H        1 ZINC001173835973    0.0900
29     H29    -4.5978    1.4870    2.2929 H        1 ZINC001173835973    0.0900
30     H30    -3.5598   -0.6640    3.4873 H        1 ZINC001173835973    0.4100
31     H31    -3.2701   -2.8866    4.6956 H        1 ZINC001173835973    0.1200
32     H32    -2.7587   -5.2677    4.3480 H        1 ZINC001173835973    0.1200
33     H33    -2.9767   -6.2633    2.1097 H        1 ZINC001173835973    0.1200
34     H34    -3.7447   -4.4327   -0.8702 H        1 ZINC001173835973    0.4000
35     H35    -1.4489   -5.5325   -0.6576 H        1 ZINC001173835973    0.4100
36     H36    -0.7865   -6.9868   -1.1763 H        1 ZINC001173835973    0.4000
37     H37    -0.7905   -8.8594   -1.3182 H        1 ZINC001173835973    0.1400
38     H38    -1.0540  -11.2991   -1.5459 H        1 ZINC001173835973    0.1400
39     H39    -3.2378  -12.3396   -1.1062 H        1 ZINC001173835973    0.1700
40     H40    -8.4179   -8.8495    0.6613 H        1 ZINC001173835973    0.1600
41     H41    -8.3134   -6.4080    0.9310 H        1 ZINC001173835973    0.1400
42     H42    -6.1931   -5.2194    0.5253 H        1 ZINC001173835973    0.1400
43     H43    -4.2284   -2.4834    0.5486 H        1 ZINC001173835973    0.1400
@<TRIPOS>BOND
1     1     2     1
2     1     27    1
3     1     28    1
4     1     29    1
5     2     3     2
6     2     4     am
7     4     5     1
8     4     30    1
9     5     26    ar
10    5     6     ar
11    6     7     ar
12    6     31    1
13    7     8     ar
14    7     32    1
15    8     9     ar
16    8     33    1
17    9     10    1
18    9     26    ar
19    10    11    1
20    10    34    1
21    11    25    ar
22    11    12    ar
23    12    13    1
24    12    14    ar
25    13    35    1
26    13    36    1
27    14    19    ar
28    14    15    ar
29    15    16    ar
30    15    37    1
31    16    17    ar
32    16    38    1
33    17    18    ar
34    17    39    1
35    18    19    ar
36    19    20    ar
37    20    25    ar
38    20    21    ar
39    21    22    ar
40    22    23    ar
41    22    40    1
42    23    24    ar
43    23    41    1
44    24    25    ar
45    24    42    1
46    26    43    1
@<TRIPOS>SUBSTRUCTURE
1   ZINC001173835973 1     RESIDUE    1   A     ZIN   1
@<TRIPOS>MOLECULE
ZINC000373715094
49	52	1	0	0
SMALL
USER_CHARGES
@<TRIPOS>ATOM
1      C1     -0.0178    1.4608    0.0101 C.3      1 ZINC000373715094    0.0900
2      N2      0.0021   -0.0041    0.0020 N.am     1 ZINC000373715094   -0.6100
3      C3      0.0076   -0.7564   -1.1119 C.2      1 ZINC000373715094    0.5200
4      O4     -0.0099   -0.3215   -2.2439 O.2      1 ZINC000373715094   -0.5200
5      C5      0.0391   -2.2245   -0.7481 C.3      1 ZINC000373715094   -0.1600
6      C6      0.4713   -2.2380    0.7365 C.3      1 ZINC000373715094   -0.1000
7      H7     -0.0481   -3.0225    1.2868 H        1 ZINC000373715094    0.1100
8      C8      1.9878   -2.3958    0.8640 C.3      1 ZINC000373715094    0.1300
9      N9      2.3830   -3.7216    0.3822 N.am     1 ZINC000373715094   -0.7300
10     C10     3.6806   -4.0857    0.3995 C.2      1 ZINC000373715094    0.5200
11     O11     4.5210   -3.3156    0.8138 O.2      1 ZINC000373715094   -0.5200
12     C12     4.0871   -5.4496   -0.0961 C.3      1 ZINC000373715094   -0.0600
13     C13     5.5808   -5.6049    0.0294 C.2      1 ZINC000373715094    0.1200
14     N14     6.4639   -5.2900   -0.8746 N.2      1 ZINC000373715094   -0.2300
15     N15     7.7516   -5.5731   -0.4077 N.pl3    1 ZINC000373715094   -0.5100
16     C16     7.6652   -6.0932    0.8573 C.ar     1 ZINC000373715094    0.1300
17     C17     8.6044   -6.5422    1.7820 C.ar     1 ZINC000373715094   -0.1400
18     C18     8.1915   -7.0175    2.9946 C.ar     1 ZINC000373715094   -0.0700
19     C19     6.8416   -7.0602    3.3201 C.ar     1 ZINC000373715094   -0.1600
20     C20     5.8985   -6.6268    2.4336 C.ar     1 ZINC000373715094   -0.0400
21     C21     6.2965   -6.1293    1.1881 C.ar     1 ZINC000373715094   -0.1600
22     C22     0.0249   -0.8386    1.2091 C.3      1 ZINC000373715094    0.1800
23     H23     0.7348   -0.4412    1.9345 H        1 ZINC000373715094    0.1000
24     C24    -1.3539   -0.9075    1.8135 C.ar     1 ZINC000373715094   -0.1000
25     C25    -2.4667   -0.9430    0.9943 C.ar     1 ZINC000373715094   -0.1000
26     C26    -3.7314   -1.0062    1.5488 C.ar     1 ZINC000373715094   -0.1200
27     C27    -3.8832   -1.0343    2.9225 C.ar     1 ZINC000373715094   -0.1100
28     C28    -2.7703   -0.9998    3.7417 C.ar     1 ZINC000373715094   -0.1200
29     C29    -1.5055   -0.9409    3.1872 C.ar     1 ZINC000373715094   -0.1100
30     H30     1.0048    1.8381    0.0023 H        1 ZINC000373715094    0.0600
31     H31    -0.5450    1.8219   -0.8730 H        1 ZINC000373715094    0.0800
32     H32    -0.5280    1.8123    0.9069 H        1 ZINC000373715094    0.0700
33     H33    -0.9505   -2.6669   -0.8614 H        1 ZINC000373715094    0.1100
34     H34     0.7674   -2.7541   -1.3622 H        1 ZINC000373715094    0.1100
35     H35     2.4841   -1.6298    0.2681 H        1 ZINC000373715094    0.0700
36     H36     2.2777   -2.2876    1.9091 H        1 ZINC000373715094    0.0800
37     H37     1.7108   -4.3375    0.0509 H        1 ZINC000373715094    0.4000
38     H38     3.5908   -6.2155    0.4998 H        1 ZINC000373715094    0.1200
39     H39     3.7971   -5.5577   -1.1412 H        1 ZINC000373715094    0.1200
40     H40     8.5740   -5.4253   -0.9004 H        1 ZINC000373715094    0.4400
41     H41     9.6569   -6.5151    1.5412 H        1 ZINC000373715094    0.1300
42     H42     8.9236   -7.3647    3.7087 H        1 ZINC000373715094    0.1300
43     H43     6.5355   -7.4402    4.2836 H        1 ZINC000373715094    0.1300
44     H44     4.8510   -6.6632    2.6942 H        1 ZINC000373715094    0.1300
45     H45    -2.3481   -0.9210   -0.0789 H        1 ZINC000373715094    0.1200
46     H46    -4.6009   -1.0332    0.9087 H        1 ZINC000373715094    0.1200
47     H47    -4.8714   -1.0830    3.3557 H        1 ZINC000373715094    0.1200
48     H48    -2.8890   -1.0214    4.8149 H        1 ZINC000373715094    0.1300
49     H49    -0.6360   -0.9139    3.8272 H        1 ZINC000373715094    0.1300
@<TRIPOS>BOND
1     1     2     1
2     1     30    1
3     1     31    1
4     1     32    1
5     2     22    1
6     2     3     am
7     3     4     2
8     3     5     1
9     5     6     1
10    5     33    1
11    5     34    1
12    6     7     1
13    6     8     1
14    6     22    1
15    8     9     1
16    8     35    1
17    8     36    1
18    9     10    am
19    9     37    1
20    10    11    2
21    10    12    1
22    12    13    1
23    12    38    1
24    12    39    1
25    13    21    1
26    13    14    2
27    14    15    1
28    15    16    1
29    15    40    1
30    16    21    ar
31    16    17    ar
32    17    18    ar
33    17    41    1
34    18    19    ar
35    18    42    1
36    19    20    ar
37    19    43    1
38    20    21    ar
39    20    44    1
40    22    23    1
41    22    24    1
42    24    29    ar
43    24    25    ar
44    25    26    ar
45    25    45    1
46    26    27    ar
47    26    46    1
48    27    28    ar
49    27    47    1
50    28    29    ar
51    28    48    1
52    29    49    1
@<TRIPOS>SUBSTRUCTURE
1   ZINC000373715094 1     RESIDUE    1   A     ZIN   1
@<TRIPOS>MOLECULE
ZINC000836820897
38	40	1	0	0
SMALL
USER_CHARGES
@<TRIPOS>ATOM
1      O1      0.1123    0.5064    0.1398 O.2      1 ZINC000836820897   -0.5200
2      C2      0.3871    1.5043   -0.4978 C.2      1 ZINC000836820897    0.5800
3      C3      1.6899    2.1720   -0.2996 C.ar     1 ZINC000836820897   -0.1600
4      C4      1.7658    3.5659   -0.2722 C.ar     1 ZINC000836820897   -0.0100
5      C5      2.9841    4.1838   -0.0864 C.ar     1 ZINC000836820897   -0.1700
6      C6      4.1325    3.4238    0.0729 C.ar     1 ZINC000836820897    0.2200
7      F7      5.3239    4.0344    0.2547 F        1 ZINC000836820897   -0.1100
8      C8      4.0627    2.0390    0.0470 C.ar     1 ZINC000836820897   -0.7200
9      S9      5.5271    1.0807    0.2515 S.o2     1 ZINC000836820897    2.7000
10     O10     5.1251   -0.2814    0.2043 O.2      1 ZINC000836820897   -0.9400
11     O11     6.4960    1.6359   -0.6272 O.2      1 ZINC000836820897   -0.9400
12     N12     6.0798    1.3521    1.7888 N.am     1 ZINC000836820897   -1.0800
13     C13     5.2562    0.9758    2.9404 C.3      1 ZINC000836820897    0.0700
14     C14     5.9814    0.5619    4.2225 C.3      1 ZINC000836820897   -0.1800
15     C15     5.2646    1.9116    4.1508 C.3      1 ZINC000836820897   -0.1900
16     C16     2.8492    1.4110   -0.1332 C.ar     1 ZINC000836820897    0.0600
17     N17    -0.4945    1.9983   -1.3896 N.am     1 ZINC000836820897   -0.6200
18     C18    -0.2443    3.1138   -2.3140 C.3      1 ZINC000836820897    0.0900
19     C19    -1.5228    3.3061   -3.1567 C.3      1 ZINC000836820897   -0.1600
20     C20    -2.2199    1.9240   -3.0509 C.3      1 ZINC000836820897    0.0800
21     H21    -1.8024    1.2197   -3.7704 H        1 ZINC000836820897    0.1100
22     F22    -3.6035    2.0462   -3.2177 F        1 ZINC000836820897   -0.1900
23     C23    -1.8673    1.5055   -1.6040 C.3      1 ZINC000836820897    0.0800
24     H24     0.8718    4.1589   -0.3966 H        1 ZINC000836820897    0.1500
25     H25     3.0440    5.2620   -0.0654 H        1 ZINC000836820897    0.1600
26     H26     6.9489    1.7603    1.9267 H        1 ZINC000836820897    0.4200
27     H27     4.3216    0.4673    2.7039 H        1 ZINC000836820897    0.1400
28     H28     5.5240   -0.2193    4.8296 H        1 ZINC000836820897    0.1100
29     H29     7.0713    0.5695    4.2090 H        1 ZINC000836820897    0.1000
30     H30     5.8828    2.8073    4.0903 H        1 ZINC000836820897    0.1000
31     H31     4.3355    2.0185    4.7108 H        1 ZINC000836820897    0.1000
32     H32     2.7959    0.3325   -0.1530 H        1 ZINC000836820897    0.1600
33     H33    -0.0319    4.0221   -1.7501 H        1 ZINC000836820897    0.0800
34     H34     0.5964    2.8742   -2.9652 H        1 ZINC000836820897    0.0800
35     H35    -2.1511    4.0885   -2.7312 H        1 ZINC000836820897    0.0900
36     H36    -1.2713    3.5328   -4.1928 H        1 ZINC000836820897    0.1000
37     H37    -1.9047    0.4208   -1.5030 H        1 ZINC000836820897    0.1000
38     H38    -2.5488    1.9770   -0.8960 H        1 ZINC000836820897    0.0900
@<TRIPOS>BOND
1     1     2     2
2     2     3     1
3     2     17    am
4     3     16    ar
5     3     4     ar
6     4     5     ar
7     4     24    1
8     5     6     ar
9     5     25    1
10    6     7     1
11    6     8     ar
12    8     9     1
13    8     16    ar
14    9     10    2
15    9     11    2
16    9     12    am
17    12    13    1
18    12    26    1
19    13    15    1
20    13    14    1
21    13    27    1
22    14    15    1
23    14    28    1
24    14    29    1
25    15    30    1
26    15    31    1
27    16    32    1
28    17    23    1
29    17    18    1
30    18    19    1
31    18    33    1
32    18    34    1
33    19    20    1
34    19    35    1
35    19    36    1
36    20    21    1
37    20    22    1
38    20    23    1
39    23    37    1
40    23    38    1
@<TRIPOS>SUBSTRUCTURE
1   ZINC000836820897 1     RESIDUE    1   A     ZIN   1
@<TRIPOS>MOLECULE
ZINC000281257088
57	58	1	0	0
SMALL
USER_CHARGES
@<TRIPOS>ATOM
1      C1     -0.9838    1.7662    0.7311 C.3      1 ZINC000281257088   -0.0700
2      C2     -0.7411    0.2997    0.4834 C.2      1 ZINC000281257088    0.1000
3      N3     -0.8040   -0.3032   -0.6761 N.2      1 ZINC000281257088   -0.3000
4      N4     -0.5137   -1.6596   -0.4804 N.pl3    1 ZINC000281257088   -0.3700
5      C5     -0.4757   -2.6915   -1.5197 C.3      1 ZINC000281257088    0.1500
6      C6      0.9381   -2.7816   -2.0975 C.3      1 ZINC000281257088   -0.6400
7      S7      0.9851   -4.0593   -3.3843 S.o2     1 ZINC000281257088    2.4300
8      C8      2.7181   -3.9921   -3.9160 C.3      1 ZINC000281257088   -0.6500
9      O9      0.7463   -5.3219   -2.7776 O.2      1 ZINC000281257088   -0.9300
10     O10     0.1632   -3.6428   -4.4661 O.2      1 ZINC000281257088   -0.9300
11     C11    -0.2752   -1.8478    0.8344 C.2      1 ZINC000281257088    0.0900
12     C12     0.0774   -3.1556    1.4951 C.3      1 ZINC000281257088   -0.1000
13     C13    -0.4038   -0.6509    1.4524 C.2      1 ZINC000281257088   -0.2300
14     C14    -0.2241   -0.3900    2.9257 C.3      1 ZINC000281257088    0.1400
15     N15     1.1799   -0.0527    3.1956 N.3      1 ZINC000281257088   -0.6700
16     C16     1.3685    0.3305    4.6011 C.3      1 ZINC000281257088    0.1400
17     H17     0.6929   -0.2497    5.2297 H        1 ZINC000281257088    0.0500
18     C18     1.0712    1.7987    4.7658 C.ar     1 ZINC000281257088   -0.0800
19     C19     1.4788    2.6986    3.7988 C.ar     1 ZINC000281257088   -0.0600
20     C20     1.2067    4.0453    3.9487 C.ar     1 ZINC000281257088   -0.1600
21     C21     0.5252    4.4929    5.0677 C.ar     1 ZINC000281257088    0.1000
22     F22     0.2582    5.8090    5.2151 F        1 ZINC000281257088   -0.1400
23     C23     0.1170    3.5906    6.0353 C.ar     1 ZINC000281257088   -0.1600
24     C24     0.3860    2.2439    5.8809 C.ar     1 ZINC000281257088   -0.0900
25     C25     2.8150    0.0535    5.0156 C.3      1 ZINC000281257088   -0.0600
26     C26     3.7668    0.7682    4.0543 C.3      1 ZINC000281257088   -0.1400
27     C27     3.0454    0.5680    6.4380 C.3      1 ZINC000281257088   -0.1400
28     C28     3.0793   -1.4528    4.9690 C.3      1 ZINC000281257088   -0.1500
29     H29    -0.0453    2.3116    0.6320 H        1 ZINC000281257088    0.0800
30     H30    -1.7021    2.1437    0.0033 H        1 ZINC000281257088    0.0700
31     H31    -1.3797    1.9041    1.7373 H        1 ZINC000281257088    0.0800
32     H32    -0.7535   -3.6528   -1.0875 H        1 ZINC000281257088    0.1100
33     H33    -1.1769   -2.4337   -2.3134 H        1 ZINC000281257088    0.1100
34     H34     1.2159   -1.8203   -2.5297 H        1 ZINC000281257088    0.1400
35     H35     1.6393   -3.0393   -1.3038 H        1 ZINC000281257088    0.1400
36     H36     3.3669   -4.2142   -3.0688 H        1 ZINC000281257088    0.1300
37     H37     2.8851   -4.7265   -4.7040 H        1 ZINC000281257088    0.1300
38     H38     2.9436   -2.9952   -4.2947 H        1 ZINC000281257088    0.1300
39     H39     1.1603   -3.2797    1.5004 H        1 ZINC000281257088    0.0800
40     H40    -0.2934   -3.1564    2.5201 H        1 ZINC000281257088    0.0900
41     H41    -0.3797   -3.9766    0.9427 H        1 ZINC000281257088    0.0700
42     H42    -0.8619    0.4407    3.2280 H        1 ZINC000281257088    0.0800
43     H43    -0.4982   -1.2821    3.4888 H        1 ZINC000281257088    0.0300
44     H44     1.7900   -0.8159    2.9439 H        1 ZINC000281257088    0.3400
45     H45     2.0104    2.3492    2.9260 H        1 ZINC000281257088    0.1400
46     H46     1.5259    4.7482    3.1934 H        1 ZINC000281257088    0.1300
47     H47    -0.4144    3.9387    6.9087 H        1 ZINC000281257088    0.1300
48     H48     0.0674    1.5398    6.6354 H        1 ZINC000281257088    0.1300
49     H49     3.5785    1.8413    4.0875 H        1 ZINC000281257088    0.0600
50     H50     4.7973    0.5709    4.3496 H        1 ZINC000281257088    0.0500
51     H51     3.6026    0.4017    3.0410 H        1 ZINC000281257088    0.0600
52     H52     2.3673    0.0588    7.1228 H        1 ZINC000281257088    0.0500
53     H53     4.0759    0.3706    6.7333 H        1 ZINC000281257088    0.0600
54     H54     2.8571    1.6411    6.4711 H        1 ZINC000281257088    0.0600
55     H55     2.9912   -1.8055    3.9415 H        1 ZINC000281257088    0.0500
56     H56     4.0843   -1.6569    5.3384 H        1 ZINC000281257088    0.0600
57     H57     2.3506   -1.9690    5.5941 H        1 ZINC000281257088    0.0600
@<TRIPOS>BOND
1     1     2     1
2     1     29    1
3     1     30    1
4     1     31    1
5     2     13    1
6     2     3     2
7     3     4     1
8     4     5     1
9     4     11    1
10    5     6     1
11    5     32    1
12    5     33    1
13    6     7     1
14    6     34    1
15    6     35    1
16    7     8     1
17    7     9     2
18    7     10    2
19    8     36    1
20    8     37    1
21    8     38    1
22    11    12    1
23    11    13    2
24    12    39    1
25    12    40    1
26    12    41    1
27    13    14    1
28    14    15    1
29    14    42    1
30    14    43    1
31    15    16    1
32    15    44    1
33    16    17    1
34    16    18    1
35    16    25    1
36    18    24    ar
37    18    19    ar
38    19    20    ar
39    19    45    1
40    20    21    ar
41    20    46    1
42    21    22    1
43    21    23    ar
44    23    24    ar
45    23    47    1
46    24    48    1
47    25    26    1
48    25    27    1
49    25    28    1
50    26    49    1
51    26    50    1
52    26    51    1
53    27    52    1
54    27    53    1
55    27    54    1
56    28    55    1
57    28    56    1
58    28    57    1
@<TRIPOS>SUBSTRUCTURE
1   ZINC000281257088 1     RESIDUE    1   A     ZIN   1
@<TRIPOS>MOLECULE
ZINC000859202493
46	46	1	0	0
SMALL
USER_CHARGES
@<TRIPOS>ATOM
1      C1     -0.0712    1.7890    0.7571 C.3      1 ZINC000859202493   -0.1500
2      C2      0.0222    0.2620    0.7757 C.3      1 ZINC000859202493   -0.1200
3      C3     -1.3745   -0.3366    0.5973 C.3      1 ZINC000859202493   -0.1000
4      H4     -1.8264    0.0601   -0.3118 H        1 ZINC000859202493    0.0700
5      C5     -2.2443    0.0304    1.8013 C.3      1 ZINC000859202493   -0.1600
6      C6     -1.2671   -1.8591    0.4909 C.3      1 ZINC000859202493   -0.1200
7      C7     -2.6465   -2.4478    0.1882 C.3      1 ZINC000859202493    0.1600
8      H8     -3.3577   -2.1141    0.9438 H        1 ZINC000859202493    0.1000
9      C9     -2.5639   -3.9755    0.2051 C.3      1 ZINC000859202493    0.0500
10     O10    -1.5483   -4.4077   -0.7026 O.3      1 ZINC000859202493   -0.5700
11     N11    -3.0904   -1.9974   -1.1332 N.am     1 ZINC000859202493   -1.1000
12     S12    -4.6948   -1.6927   -1.4083 S.o2     1 ZINC000859202493    2.6900
13     O13    -4.7935   -1.2467   -2.7539 O.2      1 ZINC000859202493   -0.9500
14     O14    -5.4080   -2.8149   -0.9071 O.2      1 ZINC000859202493   -0.9500
15     C15    -5.1467   -0.3232   -0.3958 C.ar     1 ZINC000859202493   -0.6600
16     C16    -5.6129   -0.5378    0.8880 C.ar     1 ZINC000859202493   -0.0300
17     C17    -5.9691    0.5344    1.6857 C.ar     1 ZINC000859202493   -0.1100
18     C18    -5.8595    1.8232    1.2020 C.ar     1 ZINC000859202493   -0.0600
19     C19    -5.3911    2.0421   -0.0871 C.ar     1 ZINC000859202493    0.1200
20     N20    -5.2785    3.3468   -0.5800 N.am     1 ZINC000859202493   -0.6500
21     C21    -4.9597    4.3569    0.2534 C.2      1 ZINC000859202493    0.4800
22     O22    -4.6769    4.1230    1.4094 O.2      1 ZINC000859202493   -0.4500
23     C23    -4.9546    5.7769   -0.2511 C.3      1 ZINC000859202493    0.4600
24     F24    -4.5953    6.6402    0.7895 F        1 ZINC000859202493   -0.1500
25     F25    -4.0324    5.8972   -1.2962 F        1 ZINC000859202493   -0.1600
26     F26    -6.2313    6.1116   -0.7149 F        1 ZINC000859202493   -0.1600
27     C27    -5.0294    0.9638   -0.8836 C.ar     1 ZINC000859202493   -0.0300
28     H28     0.9238    2.2154    0.8842 H        1 ZINC000859202493    0.0500
29     H29    -0.4876    2.1160   -0.1957 H        1 ZINC000859202493    0.0500
30     H30    -0.7163    2.1235    1.5695 H        1 ZINC000859202493    0.0600
31     H31     0.6673   -0.0725   -0.0368 H        1 ZINC000859202493    0.0600
32     H32     0.4386   -0.0650    1.7284 H        1 ZINC000859202493    0.0600
33     H33    -3.2393   -0.3961    1.6742 H        1 ZINC000859202493    0.0500
34     H34    -1.7923   -0.3664    2.7104 H        1 ZINC000859202493    0.0600
35     H35    -2.3208    1.1150    1.8771 H        1 ZINC000859202493    0.0600
36     H36    -0.5769   -2.1195   -0.3116 H        1 ZINC000859202493    0.0800
37     H37    -0.8980   -2.2641    1.4332 H        1 ZINC000859202493    0.0800
38     H38    -2.3200   -4.3151    1.2117 H        1 ZINC000859202493    0.0600
39     H39    -3.5236   -4.3946   -0.0972 H        1 ZINC000859202493    0.0600
40     H40    -1.4402   -5.3677   -0.7437 H        1 ZINC000859202493    0.3800
41     H41    -2.4447   -1.8775   -1.8470 H        1 ZINC000859202493    0.4200
42     H42    -5.6995   -1.5447    1.2686 H        1 ZINC000859202493    0.1500
43     H43    -6.3336    0.3635    2.6879 H        1 ZINC000859202493    0.1400
44     H44    -6.1382    2.6600    1.8253 H        1 ZINC000859202493    0.1400
45     H45    -5.4298    3.5243   -1.5216 H        1 ZINC000859202493    0.4200
46     H46    -4.6648    1.1307   -1.8864 H        1 ZINC000859202493    0.1500
@<TRIPOS>BOND
1     1     2     1
2     1     28    1
3     1     29    1
4     1     30    1
5     2     3     1
6     2     31    1
7     2     32    1
8     3     4     1
9     3     5     1
10    3     6     1
11    5     33    1
12    5     34    1
13    5     35    1
14    6     7     1
15    6     36    1
16    6     37    1
17    7     8     1
18    7     9     1
19    7     11    1
20    9     10    1
21    9     38    1
22    9     39    1
23    10    40    1
24    11    12    am
25    11    41    1
26    12    13    2
27    12    14    2
28    12    15    1
29    15    27    ar
30    15    16    ar
31    16    17    ar
32    16    42    1
33    17    18    ar
34    17    43    1
35    18    19    ar
36    18    44    1
37    19    20    1
38    19    27    ar
39    20    21    am
40    20    45    1
41    21    22    2
42    21    23    1
43    23    24    1
44    23    25    1
45    23    26    1
46    27    46    1
@<TRIPOS>SUBSTRUCTURE
1   ZINC000859202493 1     RESIDUE    1   A     ZIN   1
@<TRIPOS>MOLECULE
ZINC000938043669
52	55	1	0	0
SMALL
USER_CHARGES
@<TRIPOS>ATOM
1      O1      0.0021   -0.0041    0.0020 O.2      1 ZINC000938043669   -0.5000
2      C2     -0.0144    1.2086    0.0087 C.2      1 ZINC000938043669    0.5300
3      C3      1.2803    1.9798    0.0005 C.3      1 ZINC000938043669    0.0500
4      O4      2.3789    1.0661   -0.0149 O.3      1 ZINC000938043669   -0.2800
5      C5      3.6280    1.6028   -0.0240 C.ar     1 ZINC000938043669    0.0900
6      C6      3.7926    2.9791   -0.0124 C.ar     1 ZINC000938043669   -0.1800
7      C7      5.0634    3.5227   -0.0211 C.ar     1 ZINC000938043669   -0.0900
8      C8      6.1708    2.6958   -0.0414 C.ar     1 ZINC000938043669   -0.1300
9      C9      6.0112    1.3221   -0.0535 C.ar     1 ZINC000938043669   -0.1100
10     C10     4.7422    0.7726   -0.0391 C.ar     1 ZINC000938043669    0.0800
11     F11     4.5859   -0.5692   -0.0508 F        1 ZINC000938043669   -0.1300
12     N12    -1.1906    1.8666    0.0178 N.am     1 ZINC000938043669   -0.6200
13     C13    -1.3552    3.3275    0.0201 C.3      1 ZINC000938043669    0.1000
14     C14    -2.8707    3.6179    0.0033 C.3      1 ZINC000938043669   -0.1400
15     C15    -3.4688    2.3098   -0.5786 C.3      1 ZINC000938043669    0.1300
16     H16    -3.4159    2.3066   -1.6673 H        1 ZINC000938043669    0.1100
17     N17    -4.8470    2.1140   -0.1221 N.am     1 ZINC000938043669   -0.7200
18     C18    -5.7009    1.3728   -0.8555 C.2      1 ZINC000938043669    0.5200
19     O19    -5.3284    0.8679   -1.8934 O.2      1 ZINC000938043669   -0.5200
20     C20    -7.1186    1.1713   -0.3859 C.3      1 ZINC000938043669   -0.1000
21     H21    -7.6142    2.1384   -0.3020 H        1 ZINC000938043669    0.1000
22     C22    -7.1099    0.4827    0.9808 C.3      1 ZINC000938043669   -0.1100
23     C23    -7.8577   -0.8535    0.8871 C.3      1 ZINC000938043669   -0.0600
24     H24    -7.8193   -1.3853    1.8378 H        1 ZINC000938043669    0.0800
25     C25    -7.2087   -1.6746   -0.2172 C.2      1 ZINC000938043669   -0.1800
26     C26    -7.2163   -1.0758   -1.4058 C.2      1 ZINC000938043669   -0.1300
27     C27    -7.8722    0.2967   -1.3961 C.3      1 ZINC000938043669   -0.0400
28     H28    -7.8570    0.7394   -2.3921 H        1 ZINC000938043669    0.0900
29     C29    -9.3142    0.1208   -0.9006 C.3      1 ZINC000938043669   -0.1200
30     C30    -9.3103   -0.5659    0.4828 C.3      1 ZINC000938043669   -0.1100
31     C31    -2.5253    1.2405    0.0208 C.3      1 ZINC000938043669    0.1000
32     H32     1.3211    2.6120   -0.8866 H        1 ZINC000938043669    0.1000
33     H33     1.3381    2.6024    0.8933 H        1 ZINC000938043669    0.1000
34     H34     2.9282    3.6264    0.0032 H        1 ZINC000938043669    0.1400
35     H35     5.1913    4.5951   -0.0124 H        1 ZINC000938043669    0.1300
36     H36     7.1626    3.1233   -0.0482 H        1 ZINC000938043669    0.1400
37     H37     6.8781    0.6782   -0.0698 H        1 ZINC000938043669    0.1500
38     H38    -0.9068    3.7497    0.9195 H        1 ZINC000938043669    0.0800
39     H39    -0.8860    3.7548   -0.8661 H        1 ZINC000938043669    0.0800
40     H40    -3.2407    3.7952    1.0132 H        1 ZINC000938043669    0.0900
41     H41    -3.0938    4.4656   -0.6446 H        1 ZINC000938043669    0.1000
42     H42    -5.1449    2.5177    0.7081 H        1 ZINC000938043669    0.4000
43     H43    -6.0804    0.3017    1.2896 H        1 ZINC000938043669    0.0700
44     H44    -7.6012    1.1232    1.7132 H        1 ZINC000938043669    0.0800
45     H45    -6.7815   -2.6527   -0.0520 H        1 ZINC000938043669    0.1200
46     H46    -6.7953   -1.5225   -2.2944 H        1 ZINC000938043669    0.1200
47     H47    -9.7894    1.0977   -0.8118 H        1 ZINC000938043669    0.0700
48     H48    -9.8705   -0.4901   -1.6116 H        1 ZINC000938043669    0.0700
49     H49    -9.8617   -1.5043    0.4239 H        1 ZINC000938043669    0.0700
50     H50    -9.7844    0.0883    1.2143 H        1 ZINC000938043669    0.0700
51     H51    -2.5283    0.3427   -0.5973 H        1 ZINC000938043669    0.0900
52     H52    -2.8237    1.0005    1.0413 H        1 ZINC000938043669    0.0700
@<TRIPOS>BOND
1     1     2     2
2     2     3     1
3     2     12    am
4     3     4     1
5     3     32    1
6     3     33    1
7     4     5     1
8     5     10    ar
9     5     6     ar
10    6     7     ar
11    6     34    1
12    7     8     ar
13    7     35    1
14    8     9     ar
15    8     36    1
16    9     10    ar
17    9     37    1
18    10    11    1
19    12    31    1
20    12    13    1
21    13    14    1
22    13    38    1
23    13    39    1
24    14    15    1
25    14    40    1
26    14    41    1
27    15    16    1
28    15    17    1
29    15    31    1
30    17    18    am
31    17    42    1
32    18    19    2
33    18    20    1
34    20    21    1
35    20    27    1
36    20    22    1
37    22    23    1
38    22    43    1
39    22    44    1
40    23    24    1
41    23    30    1
42    23    25    1
43    25    26    2
44    25    45    1
45    26    27    1
46    26    46    1
47    27    28    1
48    27    29    1
49    29    30    1
50    29    47    1
51    29    48    1
52    30    49    1
53    30    50    1
54    31    51    1
55    31    52    1
@<TRIPOS>SUBSTRUCTURE
1   ZINC000938043669 1     RESIDUE    1   A     ZIN   1
@<TRIPOS>MOLECULE
ZINC000031496632
55	58	1	0	0
SMALL
USER_CHARGES
@<TRIPOS>ATOM
1      C1      0.3845   -0.5644    1.6525 C.3      1 ZINC000031496632   -0.1600
2      C2     -1.0639   -0.2716    1.2559 C.3      1 ZINC000031496632    0.1600
3      C3     -1.4147    1.1690    1.6335 C.3      1 ZINC000031496632   -0.1600
4      N4     -1.2198   -0.4492   -0.1899 N.pl3    1 ZINC000031496632   -0.3900
5      N5     -0.5201    0.2575   -1.1728 N.2      1 ZINC000031496632   -0.2300
6      C6     -0.8906   -0.1374   -2.3572 C.2      1 ZINC000031496632    0.0800
7      C7     -1.9020   -1.1740   -2.1824 C.ar     1 ZINC000031496632   -0.2100
8      C8     -2.6564   -1.9586   -3.0622 C.ar     1 ZINC000031496632    0.0100
9      C9     -3.5500   -2.8688   -2.5196 C.ar     1 ZINC000031496632    0.0500
10     N10    -4.3294   -3.6791   -3.3555 N.am     1 ZINC000031496632   -0.6600
11     C11    -3.8381   -4.0957   -4.5393 C.2      1 ZINC000031496632    0.5500
12     O12    -2.6856   -3.8494   -4.8400 O.2      1 ZINC000031496632   -0.4900
13     C13    -4.6972   -4.8496   -5.4695 C.ar     1 ZINC000031496632   -0.1300
14     C14    -6.0234   -5.1300   -5.1311 C.ar     1 ZINC000031496632   -0.0600
15     C15    -6.8214   -5.8354   -6.0051 C.ar     1 ZINC000031496632   -0.1400
16     C16    -6.3161   -6.2700   -7.2204 C.ar     1 ZINC000031496632   -0.0600
17     C17    -5.0087   -6.0020   -7.5697 C.ar     1 ZINC000031496632   -0.1500
18     C18    -4.1897   -5.2860   -6.7045 C.ar     1 ZINC000031496632   -0.0600
19     S19    -2.5195   -4.9413   -7.1476 S.3      1 ZINC000031496632    0.0900
20     C20    -2.3631   -5.7136   -8.7815 C.3      1 ZINC000031496632   -0.2000
21     C21    -0.9658   -5.5026   -9.3051 C.2      1 ZINC000031496632    0.5500
22     O22    -0.1554   -4.8913   -8.6415 O.2      1 ZINC000031496632   -0.5200
23     N23    -0.6169   -5.9931  -10.5110 N.am     1 ZINC000031496632   -0.6200
24     C24    -1.4973   -6.7436  -11.4182 C.3      1 ZINC000031496632    0.1000
25     C25    -0.6619   -7.1205  -12.6598 C.3      1 ZINC000031496632   -0.1300
26     C26     0.7955   -7.0511  -12.1321 C.3      1 ZINC000031496632   -0.1300
27     C27     0.7091   -5.8603  -11.1416 C.3      1 ZINC000031496632    0.1000
28     C28    -3.6652   -2.9703   -1.1342 C.ar     1 ZINC000031496632    0.1600
29     N29    -2.9451   -2.2214   -0.3287 N.ar     1 ZINC000031496632   -0.4900
30     C30    -2.0700   -1.3383   -0.7930 C.ar     1 ZINC000031496632    0.3000
31     H31     0.5006   -0.4322    2.7282 H        1 ZINC000031496632    0.0800
32     H32     0.6345   -1.5907    1.3835 H        1 ZINC000031496632    0.0600
33     H33     1.0505    0.1210    1.1283 H        1 ZINC000031496632    0.0700
34     H34    -1.7298   -0.9570    1.7802 H        1 ZINC000031496632    0.1100
35     H35    -1.2986    1.3012    2.7092 H        1 ZINC000031496632    0.0800
36     H36    -0.7487    1.8545    1.1093 H        1 ZINC000031496632    0.0700
37     H37    -2.4465    1.3777    1.3510 H        1 ZINC000031496632    0.0600
38     H38    -0.5167    0.2357   -3.2993 H        1 ZINC000031496632    0.2000
39     H39    -2.5460   -1.8576   -4.1318 H        1 ZINC000031496632    0.1500
40     H40    -5.2227   -3.9403   -3.0822 H        1 ZINC000031496632    0.4100
41     H41    -6.4225   -4.7946   -4.1853 H        1 ZINC000031496632    0.1300
42     H42    -7.8464   -6.0511   -5.7417 H        1 ZINC000031496632    0.1300
43     H43    -6.9500   -6.8225   -7.8982 H        1 ZINC000031496632    0.1300
44     H44    -4.6226   -6.3448   -8.5183 H        1 ZINC000031496632    0.1300
45     H45    -2.5626   -6.7820   -8.6989 H        1 ZINC000031496632    0.1100
46     H46    -3.0801   -5.2619   -9.4670 H        1 ZINC000031496632    0.1100
47     H47    -1.8553   -7.6469  -10.9241 H        1 ZINC000031496632    0.0700
48     H48    -2.3417   -6.1212  -11.7144 H        1 ZINC000031496632    0.0700
49     H49    -0.9030   -8.1292  -12.9952 H        1 ZINC000031496632    0.0900
50     H50    -0.8164   -6.3989  -13.4620 H        1 ZINC000031496632    0.0800
51     H51     1.0691   -7.9724  -11.6178 H        1 ZINC000031496632    0.0800
52     H52     1.4938   -6.8346  -12.9406 H        1 ZINC000031496632    0.0900
53     H53     0.7870   -4.9145  -11.6777 H        1 ZINC000031496632    0.0700
54     H54     1.4930   -5.9360  -10.3881 H        1 ZINC000031496632    0.0800
55     H55    -4.3619   -3.6800   -0.7131 H        1 ZINC000031496632    0.1700
@<TRIPOS>BOND
1     1     2     1
2     1     31    1
3     1     32    1
4     1     33    1
5     2     3     1
6     2     4     1
7     2     34    1
8     3     35    1
9     3     36    1
10    3     37    1
11    4     30    1
12    4     5     1
13    5     6     2
14    6     7     1
15    6     38    1
16    7     30    ar
17    7     8     ar
18    8     9     ar
19    8     39    1
20    9     10    1
21    9     28    ar
22    10    11    am
23    10    40    1
24    11    12    2
25    11    13    1
26    13    18    ar
27    13    14    ar
28    14    15    ar
29    14    41    1
30    15    16    ar
31    15    42    1
32    16    17    ar
33    16    43    1
34    17    18    ar
35    17    44    1
36    18    19    1
37    19    20    1
38    20    21    1
39    20    45    1
40    20    46    1
41    21    22    2
42    21    23    am
43    23    27    1
44    23    24    1
45    24    25    1
46    24    47    1
47    24    48    1
48    25    26    1
49    25    49    1
50    25    50    1
51    26    27    1
52    26    51    1
53    26    52    1
54    27    53    1
55    27    54    1
56    28    29    ar
57    28    55    1
58    29    30    ar
@<TRIPOS>SUBSTRUCTURE
1   ZINC000031496632 1     RESIDUE    1   A     ZIN   1
@<TRIPOS>MOLECULE
ZINC001289445798
53	54	1	0	0
SMALL
USER_CHARGES
@<TRIPOS>ATOM
1      C1     -0.7002    1.1346   -0.0794 C.3      1 ZINC001289445798   -0.1500
2      C2     -0.4514   -0.3749   -0.0680 C.3      1 ZINC001289445798    0.0600
3      O3      0.3472   -0.7175    1.0665 O.3      1 ZINC001289445798   -0.3700
4      C4      0.5571   -2.1218    1.2268 C.3      1 ZINC001289445798    0.1100
5      H5     -0.2009   -2.6688    0.6662 H        1 ZINC001289445798    0.0700
6      C6      0.4570   -2.4864    2.7094 C.3      1 ZINC001289445798   -0.1400
7      C7     -0.9474   -2.2352    3.1948 C.2      1 ZINC001289445798    0.5400
8      O8     -1.7857   -1.8067    2.4302 O.2      1 ZINC001289445798   -0.5200
9      N9     -1.2718   -2.4866    4.4785 N.am     1 ZINC001289445798   -0.6200
10     C10    -2.5991   -2.2934    5.0806 C.3      1 ZINC001289445798    0.1000
11     C11    -2.5022   -2.7367    6.5555 C.3      1 ZINC001289445798    0.1400
12     H12    -2.3254   -1.8795    7.2051 H        1 ZINC001289445798    0.1200
13     N13    -3.7142   -3.4519    6.9625 N.am     1 ZINC001289445798   -0.7200
14     C14    -4.7809   -2.7653    7.4178 C.2      1 ZINC001289445798    0.6000
15     O15    -4.7373   -1.5520    7.4908 O.2      1 ZINC001289445798   -0.5100
16     C16    -5.9985   -3.4837    7.8267 C.2      1 ZINC001289445798   -0.0500
17     C17    -7.1707   -2.9257    8.3065 C.2      1 ZINC001289445798   -0.1400
18     C18    -8.0212   -4.0060    8.5522 C.2      1 ZINC001289445798    0.0000
19     N19    -7.3801   -5.1018    8.2352 N.2      1 ZINC001289445798   -0.2700
20     N20    -6.2004   -4.8345    7.8031 N.pl3    1 ZINC001289445798   -0.3800
21     C21    -1.2748   -3.6859    6.5531 C.3      1 ZINC001289445798    0.0700
22     H22    -1.5561   -4.6875    6.2280 H        1 ZINC001289445798    0.0900
23     O23    -0.6539   -3.7236    7.8397 O.3      1 ZINC001289445798   -0.3700
24     C24    -0.0171   -4.9667    8.1415 C.3      1 ZINC001289445798    0.0300
25     C25    -0.3561   -3.0071    5.5100 C.3      1 ZINC001289445798    0.0800
26     C26     1.9458   -2.4931    0.7030 C.3      1 ZINC001289445798   -0.1100
27     C27     2.1303   -4.0101    0.7776 C.3      1 ZINC001289445798   -0.1500
28     C28     2.0825   -2.0336   -0.7500 C.3      1 ZINC001289445798   -0.1500
29     H29     0.2534    1.6596   -0.1346 H        1 ZINC001289445798    0.0600
30     H30    -1.3094    1.3959   -0.9447 H        1 ZINC001289445798    0.0700
31     H31    -1.2219    1.4238    0.8328 H        1 ZINC001289445798    0.0600
32     H32    -1.4050   -0.9000   -0.0128 H        1 ZINC001289445798    0.0500
33     H33     0.0703   -0.6641   -0.9803 H        1 ZINC001289445798    0.0500
34     H34     0.7043   -3.5397    2.8420 H        1 ZINC001289445798    0.1100
35     H35     1.1542   -1.8746    3.2819 H        1 ZINC001289445798    0.1000
36     H36    -2.8807   -1.2417    5.0273 H        1 ZINC001289445798    0.0800
37     H37    -3.3357   -2.9034    4.5577 H        1 ZINC001289445798    0.0800
38     H38    -3.7491   -4.4195    6.9044 H        1 ZINC001289445798    0.4000
39     H39    -7.3826   -1.8776    8.4586 H        1 ZINC001289445798    0.1700
40     H40    -9.0289   -3.9473    8.9362 H        1 ZINC001289445798    0.1900
41     H41    -5.5497   -5.4919    7.5111 H        1 ZINC001289445798    0.4400
42     H42     0.4297   -4.9144    9.1344 H        1 ZINC001289445798    0.0900
43     H43    -0.7552   -5.7684    8.1171 H        1 ZINC001289445798    0.0400
44     H44     0.7600   -5.1655    7.4035 H        1 ZINC001289445798    0.0500
45     H45     0.3315   -3.7350    5.0794 H        1 ZINC001289445798    0.0900
46     H46     0.1965   -2.1867    5.9680 H        1 ZINC001289445798    0.0900
47     H47     2.7065   -2.0042    1.3117 H        1 ZINC001289445798    0.0800
48     H48     1.3697   -4.4990    0.1688 H        1 ZINC001289445798    0.0600
49     H49     3.1197   -4.2746    0.4043 H        1 ZINC001289445798    0.0600
50     H50     2.0330   -4.3375    1.8127 H        1 ZINC001289445798    0.0600
51     H51     2.0489   -0.9449   -0.7914 H        1 ZINC001289445798    0.0600
52     H52     3.0325   -2.3834   -1.1539 H        1 ZINC001289445798    0.0600
53     H53     1.2634   -2.4450   -1.3398 H        1 ZINC001289445798    0.0500
@<TRIPOS>BOND
1     1     2     1
2     1     29    1
3     1     30    1
4     1     31    1
5     2     3     1
6     2     32    1
7     2     33    1
8     3     4     1
9     4     5     1
10    4     6     1
11    4     26    1
12    6     7     1
13    6     34    1
14    6     35    1
15    7     8     2
16    7     9     am
17    9     25    1
18    9     10    1
19    10    11    1
20    10    36    1
21    10    37    1
22    11    12    1
23    11    13    1
24    11    21    1
25    13    14    am
26    13    38    1
27    14    15    2
28    14    16    1
29    16    20    1
30    16    17    2
31    17    18    1
32    17    39    1
33    18    19    2
34    18    40    1
35    19    20    1
36    20    41    1
37    21    22    1
38    21    23    1
39    21    25    1
40    23    24    1
41    24    42    1
42    24    43    1
43    24    44    1
44    25    45    1
45    25    46    1
46    26    27    1
47    26    28    1
48    26    47    1
49    27    48    1
50    27    49    1
51    27    50    1
52    28    51    1
53    28    52    1
54    28    53    1
@<TRIPOS>SUBSTRUCTURE
1   ZINC001289445798 1     RESIDUE    1   A     ZIN   1
@<TRIPOS>MOLECULE
ZINC000547864253
56	60	1	0	0
SMALL
USER_CHARGES
@<TRIPOS>ATOM
1      O1      0.0023   -0.0040    0.0217 O.2      1 ZINC000547864253   -0.5300
2      C2     -0.0144    1.2086    0.0087 C.2      1 ZINC000547864253    0.5400
3      N3      1.1433    1.8982   -0.0205 N.am     1 ZINC000547864253   -0.7200
4      C4      2.4217    1.1829   -0.0365 C.3      1 ZINC000547864253    0.1300
5      C5      3.5707    2.1927   -0.0691 C.3      1 ZINC000547864253    0.0200
6      H6      3.4702    2.8845    0.7672 H        1 ZINC000547864253    0.0900
7      C7      4.8845    1.4624    0.0382 C.2      1 ZINC000547864253   -0.1600
8      C8      5.3561    0.5381   -0.8134 C.2      1 ZINC000547864253    0.0600
9      N9      6.5807    0.0967   -0.3916 N.pl3    1 ZINC000547864253   -0.5900
10     C10     6.9361    0.7426    0.7714 C.ar     1 ZINC000547864253    0.1000
11     C11     8.0488    0.6746    1.6030 C.ar     1 ZINC000547864253   -0.1300
12     C12     8.1132    1.4699    2.7264 C.ar     1 ZINC000547864253   -0.1000
13     C13     7.0779    2.3400    3.0379 C.ar     1 ZINC000547864253   -0.1400
14     C14     5.9753    2.4230    2.2347 C.ar     1 ZINC000547864253   -0.0700
15     C15     5.8920    1.6310    1.0882 C.ar     1 ZINC000547864253   -0.1000
16     C16     3.5275    2.9612   -1.3647 C.ar     1 ZINC000547864253   -0.0700
17     C17     3.6312    2.2913   -2.5694 C.ar     1 ZINC000547864253   -0.1100
18     C18     3.5916    2.9962   -3.7579 C.ar     1 ZINC000547864253   -0.1200
19     C19     3.4479    4.3710   -3.7416 C.ar     1 ZINC000547864253   -0.1200
20     C20     3.3432    5.0408   -2.5369 C.ar     1 ZINC000547864253   -0.1100
21     C21     3.3785    4.3354   -1.3486 C.ar     1 ZINC000547864253   -0.1200
22     C22    -1.3296    1.9443    0.0189 C.3      1 ZINC000547864253   -0.1700
23     H23    -1.5005    2.5896    0.8806 H        1 ZINC000547864253    0.1400
24     C24    -2.5426    1.2309   -0.5810 C.3      1 ZINC000547864253   -0.1300
25     C25    -1.8951    2.4001   -1.3289 C.3      1 ZINC000547864253   -0.1400
26     C26    -2.6580    3.7251   -1.3587 C.3      1 ZINC000547864253   -0.0700
27     C27    -3.7322    3.6776   -2.4474 C.3      1 ZINC000547864253   -0.6000
28     S28    -2.9376    3.4221   -4.0597 S.o2     1 ZINC000547864253    2.4200
29     O29    -3.9468    3.1757   -5.0293 O.2      1 ZINC000547864253   -0.9400
30     O30    -2.0059    4.4725   -4.2782 O.2      1 ZINC000547864253   -0.9300
31     C31    -2.0204    1.8816   -3.7730 C.3      1 ZINC000547864253   -0.6000
32     C32    -1.0804    2.0700   -2.5803 C.3      1 ZINC000547864253   -0.0700
33     H33     1.1300    2.8680   -0.0309 H        1 ZINC000547864253    0.4000
34     H34     2.5046    0.5669    0.8588 H        1 ZINC000547864253    0.0800
35     H35     2.4714    0.5474   -0.9207 H        1 ZINC000547864253    0.0700
36     H36     4.8446    0.1936   -1.7000 H        1 ZINC000547864253    0.1700
37     H37     7.1184   -0.5717   -0.8444 H        1 ZINC000547864253    0.4200
38     H38     8.8595    0.0003    1.3693 H        1 ZINC000547864253    0.1200
39     H39     8.9779    1.4153    3.3711 H        1 ZINC000547864253    0.1300
40     H40     7.1439    2.9563    3.9224 H        1 ZINC000547864253    0.1200
41     H41     5.1735    3.1024    2.4835 H        1 ZINC000547864253    0.1200
42     H42     3.7436    1.2172   -2.5821 H        1 ZINC000547864253    0.1200
43     H43     3.6734    2.4729   -4.6991 H        1 ZINC000547864253    0.1200
44     H44     3.4176    4.9218   -4.6701 H        1 ZINC000547864253    0.1200
45     H45     3.2312    6.1149   -2.5242 H        1 ZINC000547864253    0.1200
46     H46     3.2967    4.8587   -0.4074 H        1 ZINC000547864253    0.1200
47     H47    -2.3895    0.2294   -0.9831 H        1 ZINC000547864253    0.1100
48     H48    -3.5117    1.4071   -0.1142 H        1 ZINC000547864253    0.1100
49     H49    -3.1299    3.8938   -0.3907 H        1 ZINC000547864253    0.0900
50     H50    -1.9638    4.5386   -1.5695 H        1 ZINC000547864253    0.0900
51     H51    -4.4190    2.8556   -2.2456 H        1 ZINC000547864253    0.1400
52     H52    -4.2823    4.6186   -2.4576 H        1 ZINC000547864253    0.1400
53     H53    -2.7215    1.0746   -3.5602 H        1 ZINC000547864253    0.1400
54     H54    -1.4377    1.6342   -4.6604 H        1 ZINC000547864253    0.1400
55     H55    -0.3892    2.8866   -2.7889 H        1 ZINC000547864253    0.0900
56     H56    -0.5167    1.1520   -2.4144 H        1 ZINC000547864253    0.0900
@<TRIPOS>BOND
1     1     2     2
2     2     3     am
3     2     22    1
4     3     4     1
5     3     33    1
6     4     5     1
7     4     34    1
8     4     35    1
9     5     6     1
10    5     7     1
11    5     16    1
12    7     15    1
13    7     8     2
14    8     9     1
15    8     36    1
16    9     10    1
17    9     37    1
18    10    15    ar
19    10    11    ar
20    11    12    ar
21    11    38    1
22    12    13    ar
23    12    39    1
24    13    14    ar
25    13    40    1
26    14    15    ar
27    14    41    1
28    16    21    ar
29    16    17    ar
30    17    18    ar
31    17    42    1
32    18    19    ar
33    18    43    1
34    19    20    ar
35    19    44    1
36    20    21    ar
37    20    45    1
38    21    46    1
39    22    23    1
40    22    25    1
41    22    24    1
42    24    25    1
43    24    47    1
44    24    48    1
45    25    32    1
46    25    26    1
47    26    27    1
48    26    49    1
49    26    50    1
50    27    28    1
51    27    51    1
52    27    52    1
53    28    29    2
54    28    30    2
55    28    31    1
56    31    32    1
57    31    53    1
58    31    54    1
59    32    55    1
60    32    56    1
@<TRIPOS>SUBSTRUCTURE
1   ZINC000547864253 1     RESIDUE    1   A     ZIN   1
@<TRIPOS>MOLECULE
ZINC000863216249
45	48	1	0	0
SMALL
USER_CHARGES
@<TRIPOS>ATOM
1      S1     -0.0111   -0.0041   -0.0074 S.2      1 ZINC000863216249   -0.5900
2      C2     -0.0211    1.7077    0.0114 C.2      1 ZINC000863216249    0.5600
3      N3      1.1421    2.3885    0.0114 N.am     1 ZINC000863216249   -0.6800
4      C4      2.4133    1.6666    0.1064 C.3      1 ZINC000863216249    0.1200
5      C5      3.5707    2.6670    0.0855 C.3      1 ZINC000863216249    0.0400
6      N6      4.8454    1.9431    0.1807 N.3      1 ZINC000863216249   -0.5300
7      C7      4.7957    0.9257    1.2408 C.3      1 ZINC000863216249    0.0000
8      C8      6.1195    0.1571    1.2656 C.3      1 ZINC000863216249    0.0600
9      O9      7.1970    1.0792    1.4502 O.3      1 ZINC000863216249   -0.3800
10     C10     7.2755    2.0836    0.4351 C.3      1 ZINC000863216249    0.0600
11     C11     5.9634    2.8717    0.4019 C.3      1 ZINC000863216249    0.0200
12     N12    -1.1923    2.3747    0.0206 N.am     1 ZINC000863216249   -0.5100
13     C13    -1.3315    3.8317   -0.0817 C.3      1 ZINC000863216249    0.1200
14     C14    -2.8407    4.0883   -0.0257 C.3      1 ZINC000863216249   -0.1100
15     C15    -3.4169    5.3097    0.6800 C.3      1 ZINC000863216249   -0.1500
16     C16    -3.4930    5.1951   -0.8451 C.3      1 ZINC000863216249   -0.1500
17     C17    -3.4691    2.7253    0.1081 C.ar     1 ZINC000863216249   -0.0700
18     C18    -4.7906    2.3341    0.2039 C.ar     1 ZINC000863216249   -0.0800
19     C19    -5.1132    0.9950    0.3209 C.ar     1 ZINC000863216249   -0.1000
20     C20    -4.1083    0.0444    0.3419 C.ar     1 ZINC000863216249   -0.0700
21     Br21   -4.5470   -1.7881    0.5012 Br       1 ZINC000863216249   -0.0400
22     C22    -2.7870    0.4297    0.2466 C.ar     1 ZINC000863216249   -0.0900
23     C23    -2.4537    1.7791    0.1230 C.ar     1 ZINC000863216249    0.1400
24     H24     1.1375    3.3565   -0.0514 H        1 ZINC000863216249    0.4000
25     H25     2.4403    1.0991    1.0366 H        1 ZINC000863216249    0.0900
26     H26     2.5076    0.9842   -0.7383 H        1 ZINC000863216249    0.1000
27     H27     3.5437    3.2344   -0.8448 H        1 ZINC000863216249    0.0900
28     H28     3.4764    3.3494    0.9302 H        1 ZINC000863216249    0.0400
29     H29     4.6386    1.4112    2.2040 H        1 ZINC000863216249    0.0500
30     H30     3.9768    0.2340    1.0433 H        1 ZINC000863216249    0.1000
31     H31     6.1089   -0.5595    2.0868 H        1 ZINC000863216249    0.1000
32     H32     6.2509   -0.3720    0.3217 H        1 ZINC000863216249    0.0600
33     H33     8.1011    2.7602    0.6557 H        1 ZINC000863216249    0.1000
34     H34     7.4405    1.6105   -0.5329 H        1 ZINC000863216249    0.0600
35     H35     5.9970    3.6005   -0.4079 H        1 ZINC000863216249    0.0900
36     H36     5.8250    3.3883    1.3517 H        1 ZINC000863216249    0.0500
37     H37    -0.8326    4.3200    0.7554 H        1 ZINC000863216249    0.0900
38     H38    -0.9216    4.1862   -1.0275 H        1 ZINC000863216249    0.0900
39     H39    -4.3416    5.1772    1.2417 H        1 ZINC000863216249    0.1100
40     H40    -2.7124    6.0298    1.0963 H        1 ZINC000863216249    0.1100
41     H41    -2.8385    5.8397   -1.4318 H        1 ZINC000863216249    0.1100
42     H42    -4.4677    4.9872   -1.2864 H        1 ZINC000863216249    0.1100
43     H43    -5.5743    3.0770    0.1878 H        1 ZINC000863216249    0.1400
44     H44    -6.1470    0.6917    0.3960 H        1 ZINC000863216249    0.1400
45     H45    -2.0069   -0.3171    0.2639 H        1 ZINC000863216249    0.1900
@<TRIPOS>BOND
1     1     2     2
2     2     3     am
3     2     12    am
4     3     4     1
5     3     24    1
6     4     5     1
7     4     25    1
8     4     26    1
9     5     6     1
10    5     27    1
11    5     28    1
12    6     11    1
13    6     7     1
14    7     8     1
15    7     29    1
16    7     30    1
17    8     9     1
18    8     31    1
19    8     32    1
20    9     10    1
21    10    11    1
22    10    33    1
23    10    34    1
24    11    35    1
25    11    36    1
26    12    23    1
27    12    13    1
28    13    14    1
29    13    37    1
30    13    38    1
31    14    16    1
32    14    15    1
33    14    17    1
34    15    16    1
35    15    39    1
36    15    40    1
37    16    41    1
38    16    42    1
39    17    23    ar
40    17    18    ar
41    18    19    ar
42    18    43    1
43    19    20    ar
44    19    44    1
45    20    21    1
46    20    22    ar
47    22    23    ar
48    22    45    1
@<TRIPOS>SUBSTRUCTURE
1   ZINC000863216249 1     RESIDUE    1   A     ZIN   1
@<TRIPOS>MOLECULE
ZINC000848949366
42	43	1	0	0
SMALL
USER_CHARGES
@<TRIPOS>ATOM
1      C1      1.2049   -0.8915   -2.0651 C.3      1 ZINC000848949366   -0.1500
2      C2      0.5385   -1.0825   -0.7011 C.3      1 ZINC000848949366    0.0600
3      O3     -0.7673   -1.6339   -0.8821 O.3      1 ZINC000848949366   -0.3500
4      C4     -1.4942   -1.8655    0.2311 C.2      1 ZINC000848949366    0.5400
5      O5     -1.0303   -1.6057    1.3256 O.2      1 ZINC000848949366   -0.4800
6      C6     -2.7954   -2.4102    0.1256 C.2      1 ZINC000848949366   -0.2300
7      C7     -2.9845   -3.7307   -0.0846 C.2      1 ZINC000848949366    0.2000
8      C8     -1.7893   -4.6402   -0.2088 C.3      1 ZINC000848949366    0.1000
9      O9     -1.7716   -5.5712    0.9053 O.3      1 ZINC000848949366   -0.3500
10     C10    -0.7593   -6.4598    0.9439 C.2      1 ZINC000848949366    0.5100
11     O11     0.0856   -6.4568    0.0705 O.2      1 ZINC000848949366   -0.4800
12     C12    -0.6768   -7.4351    2.0453 C.ar     1 ZINC000848949366   -0.1600
13     C13    -1.6496   -7.4458    3.0488 C.ar     1 ZINC000848949366   -0.0300
14     C14    -1.5670   -8.3599    4.0759 C.ar     1 ZINC000848949366   -0.1300
15     C15    -0.5221   -9.2706    4.1195 C.ar     1 ZINC000848949366    0.0200
16     Cl16   -0.4300  -10.4168    5.4200 Cl       1 ZINC000848949366   -0.0500
17     C17     0.4464   -9.2711    3.1330 C.ar     1 ZINC000848949366   -0.1500
18     C18     0.3753   -8.3618    2.0893 C.ar     1 ZINC000848949366    0.1900
19     O19     1.3248   -8.3610    1.1207 O.3      1 ZINC000848949366   -0.4700
20     N20    -4.2412   -4.2554   -0.1858 N.am     1 ZINC000848949366   -0.6400
21     C21    -5.3602   -3.5265   -0.0886 C.2      1 ZINC000848949366    0.7100
22     O22    -6.4356   -4.0837   -0.1922 O.2      1 ZINC000848949366   -0.5600
23     N23    -5.3331   -2.1954    0.1207 N.am     1 ZINC000848949366   -0.7100
24     C24    -4.0244   -1.5329    0.2507 C.3      1 ZINC000848949366    0.2000
25     H25    -3.9941   -1.0364    1.2206 H        1 ZINC000848949366    0.0900
26     C26    -3.9327   -0.4537   -0.8299 C.3      1 ZINC000848949366   -0.1700
27     H27     2.2010   -0.4709   -1.9271 H        1 ZINC000848949366    0.0800
28     H28     1.2838   -1.8548   -2.5690 H        1 ZINC000848949366    0.0700
29     H29     0.6046   -0.2126   -2.6708 H        1 ZINC000848949366    0.0700
30     H30     1.1388   -1.7614   -0.0954 H        1 ZINC000848949366    0.0700
31     H31     0.4596   -0.1192   -0.1972 H        1 ZINC000848949366    0.0700
32     H32    -1.8507   -5.1951   -1.1450 H        1 ZINC000848949366    0.1100
33     H33    -0.8767   -4.0443   -0.1989 H        1 ZINC000848949366    0.1000
34     H34    -2.4647   -6.7379    3.0192 H        1 ZINC000848949366    0.1500
35     H35    -2.3192   -8.3672    4.8508 H        1 ZINC000848949366    0.1500
36     H36     1.2573   -9.9833    3.1736 H        1 ZINC000848949366    0.1500
37     H37     1.1220   -8.9367    0.3706 H        1 ZINC000848949366    0.4000
38     H38    -4.3281   -5.2096   -0.3368 H        1 ZINC000848949366    0.4300
39     H39    -6.1562   -1.6865    0.1875 H        1 ZINC000848949366    0.4400
40     H40    -4.7365    0.2692   -0.6907 H        1 ZINC000848949366    0.0700
41     H41    -2.9708    0.0537   -0.7559 H        1 ZINC000848949366    0.0700
42     H42    -4.0253   -0.9152   -1.8131 H        1 ZINC000848949366    0.0700
@<TRIPOS>BOND
1     1     2     1
2     1     27    1
3     1     28    1
4     1     29    1
5     2     3     1
6     2     30    1
7     2     31    1
8     3     4     1
9     4     5     2
10    4     6     1
11    6     24    1
12    6     7     2
13    7     8     1
14    7     20    1
15    8     9     1
16    8     32    1
17    8     33    1
18    9     10    1
19    10    11    2
20    10    12    1
21    12    18    ar
22    12    13    ar
23    13    14    ar
24    13    34    1
25    14    15    ar
26    14    35    1
27    15    16    1
28    15    17    ar
29    17    18    ar
30    17    36    1
31    18    19    1
32    19    37    1
33    20    21    am
34    20    38    1
35    21    22    2
36    21    23    am
37    23    24    1
38    23    39    1
39    24    25    1
40    24    26    1
41    26    40    1
42    26    41    1
43    26    42    1
@<TRIPOS>SUBSTRUCTURE
1   ZINC000848949366 1     RESIDUE    1   A     ZIN   1
@<TRIPOS>MOLECULE
ZINC001327099466
57	60	1	0	0
SMALL
USER_CHARGES
@<TRIPOS>ATOM
1      O1      0.0112    0.0176   -0.2260 O.2      1 ZINC001327099466   -0.4800
2      C2     -0.0139    1.2107   -0.0041 C.2      1 ZINC001327099466    0.5300
3      N3      1.1353    1.8796    0.2162 N.am     1 ZINC001327099466   -0.6000
4      C4      2.3573    1.1986    0.1890 C.2      1 ZINC001327099466    0.2900
5      N5      3.5407    1.7293    0.3921 N.2      1 ZINC001327099466   -0.3100
6      N6      4.4996    0.7145    0.2790 N.pl3    1 ZINC001327099466   -0.3500
7      C7      5.9472    0.8773    0.4344 C.3      1 ZINC001327099466    0.1700
8      C8      6.5337   -0.3746    1.0899 C.3      1 ZINC001327099466   -0.1300
9      C9      8.0456   -0.2046    1.2521 C.3      1 ZINC001327099466   -0.1200
10     C10     8.6863   -0.0007   -0.1222 C.3      1 ZINC001327099466   -0.1300
11     C11     8.0997    1.2511   -0.7777 C.3      1 ZINC001327099466   -0.1200
12     C12     6.5879    1.0811   -0.9400 C.3      1 ZINC001327099466   -0.1300
13     C13     3.8566   -0.4397    0.0024 C.2      1 ZINC001327099466    0.0700
14     C14     2.5321   -0.1737   -0.0543 C.2      1 ZINC001327099466   -0.2700
15     C15    -1.3177    1.9387    0.0188 C.2      1 ZINC001327099466    0.5100
16     O16    -1.3361    3.1473    0.1275 O.2      1 ZINC001327099466   -0.5100
17     N17    -2.4740    1.2535   -0.0811 N.am     1 ZINC001327099466   -0.5700
18     C18    -2.4755   -0.2158   -0.0846 C.3      1 ZINC001327099466    0.0400
19     C19    -3.2349   -0.7052   -1.3218 C.3      1 ZINC001327099466   -0.1300
20     C20    -4.6295   -0.0751   -1.3417 C.3      1 ZINC001327099466   -0.1200
21     C21    -4.5020    1.4477   -1.4242 C.3      1 ZINC001327099466    0.0800
22     H22    -3.9466    1.7181   -2.3223 H        1 ZINC001327099466    0.0700
23     O23    -5.8045    2.0334   -1.4745 O.3      1 ZINC001327099466   -0.3500
24     C24    -5.8605    3.2649   -2.1972 C.3      1 ZINC001327099466    0.0600
25     C25    -6.6655    3.1758   -3.5045 C.3      1 ZINC001327099466   -0.1600
26     C26    -7.9058    3.5453   -2.6737 C.3      1 ZINC001327099466   -0.1400
27     C27    -6.9444    4.2294   -1.6876 C.3      1 ZINC001327099466   -0.1400
28     C28    -3.7574    1.9615   -0.1826 C.3      1 ZINC001327099466    0.0900
29     H29     1.1152    2.8330    0.3936 H        1 ZINC001327099466    0.4300
30     H30     6.1500    1.7450    1.0621 H        1 ZINC001327099466    0.1000
31     H31     6.0773   -0.5198    2.0690 H        1 ZINC001327099466    0.0700
32     H32     6.3310   -1.2423    0.4621 H        1 ZINC001327099466    0.0700
33     H33     8.2483    0.6631    1.8798 H        1 ZINC001327099466    0.0700
34     H34     8.4634   -1.0965    1.7191 H        1 ZINC001327099466    0.0700
35     H35     9.7633    0.1204   -0.0067 H        1 ZINC001327099466    0.0700
36     H36     8.4835   -0.8685   -0.7500 H        1 ZINC001327099466    0.0700
37     H37     8.3025    2.1189   -0.1500 H        1 ZINC001327099466    0.0700
38     H38     8.5562    1.3964   -1.7569 H        1 ZINC001327099466    0.0700
39     H39     6.3851    0.2134   -1.5677 H        1 ZINC001327099466    0.0700
40     H40     6.1700    1.9730   -1.4070 H        1 ZINC001327099466    0.0700
41     H41     4.3180   -1.4052   -0.1437 H        1 ZINC001327099466    0.1800
42     H42     1.7481   -0.8885   -0.2566 H        1 ZINC001327099466    0.1700
43     H43    -1.4495   -0.5822   -0.1170 H        1 ZINC001327099466    0.1600
44     H44    -2.9685   -0.5828    0.8156 H        1 ZINC001327099466    0.0700
45     H45    -2.6915   -0.4145   -2.2208 H        1 ZINC001327099466    0.0700
46     H46    -3.3266   -1.7907   -1.2865 H        1 ZINC001327099466    0.0900
47     H47    -5.1808   -0.4409   -2.2079 H        1 ZINC001327099466    0.0800
48     H48    -5.1634   -0.3460   -0.4308 H        1 ZINC001327099466    0.0800
49     H49    -4.8823    3.7308   -2.3161 H        1 ZINC001327099466    0.0700
50     H50    -6.3906    3.9328   -4.2389 H        1 ZINC001327099466    0.0900
51     H51    -6.7053    2.1711   -3.9252 H        1 ZINC001327099466    0.0700
52     H52    -8.5791    4.2379   -3.1787 H        1 ZINC001327099466    0.0700
53     H53    -8.4222    2.6826   -2.2527 H        1 ZINC001327099466    0.0800
54     H54    -7.2093    4.0752   -0.6415 H        1 ZINC001327099466    0.0800
55     H55    -6.7457    5.2744   -1.9253 H        1 ZINC001327099466    0.0900
56     H56    -4.3570    1.7715    0.7076 H        1 ZINC001327099466    0.0900
57     H57    -3.5761    3.0317   -0.2820 H        1 ZINC001327099466    0.1000
@<TRIPOS>BOND
1     1     2     2
2     2     3     am
3     2     15    1
4     3     4     1
5     3     29    1
6     4     14    1
7     4     5     2
8     5     6     1
9     6     7     1
10    6     13    1
11    7     12    1
12    7     8     1
13    7     30    1
14    8     9     1
15    8     31    1
16    8     32    1
17    9     10    1
18    9     33    1
19    9     34    1
20    10    11    1
21    10    35    1
22    10    36    1
23    11    12    1
24    11    37    1
25    11    38    1
26    12    39    1
27    12    40    1
28    13    14    2
29    13    41    1
30    14    42    1
31    15    16    2
32    15    17    am
33    17    28    1
34    17    18    1
35    18    19    1
36    18    43    1
37    18    44    1
38    19    20    1
39    19    45    1
40    19    46    1
41    20    21    1
42    20    47    1
43    20    48    1
44    21    22    1
45    21    23    1
46    21    28    1
47    23    24    1
48    24    27    1
49    24    25    1
50    24    49    1
51    25    26    1
52    25    50    1
53    25    51    1
54    26    27    1
55    26    52    1
56    26    53    1
57    27    54    1
58    27    55    1
59    28    56    1
60    28    57    1
@<TRIPOS>SUBSTRUCTURE
1   ZINC001327099466 1     RESIDUE    1   A     ZIN   1
@<TRIPOS>MOLECULE
ZINC001282645012
59	61	1	0	0
SMALL
USER_CHARGES
@<TRIPOS>ATOM
1      C1      0.0664    1.8346   -1.0406 C.2      1 ZINC001282645012   -0.1900
2      C2      0.1136    0.5383   -0.8576 C.2      1 ZINC001282645012   -0.1300
3      C3      1.4421   -0.1731   -0.8456 C.3      1 ZINC001282645012   -0.0500
4      C4      2.5658    0.8413   -1.0675 C.3      1 ZINC001282645012   -0.1500
5      C5      1.6383   -0.8642    0.5053 C.3      1 ZINC001282645012   -0.1400
6      C6      1.4705   -1.2029   -1.9455 C.2      1 ZINC001282645012    0.5500
7      O7      0.5069   -1.3451   -2.6680 O.2      1 ZINC001282645012   -0.5300
8      N8      2.5668   -1.9658   -2.1262 N.am     1 ZINC001282645012   -0.6300
9      C9      3.8725   -2.0010   -1.3838 C.3      1 ZINC001282645012    0.1200
10     H10     3.9702   -1.2941   -0.5600 H        1 ZINC001282645012    0.1300
11     C11     4.8860   -1.8153   -2.5530 C.3      1 ZINC001282645012   -0.1300
12     C12     4.1959   -2.5249   -3.7439 C.3      1 ZINC001282645012   -0.1300
13     C13     2.8569   -3.0473   -3.1279 C.3      1 ZINC001282645012    0.1200
14     H14     2.0613   -3.2586   -3.8424 H        1 ZINC001282645012    0.1200
15     C15     3.2702   -4.2373   -2.2104 C.3      1 ZINC001282645012    0.1300
16     H16     2.3908   -4.7866   -1.8744 H        1 ZINC001282645012    0.1000
17     N17     4.1981   -5.1298   -2.9095 N.am     1 ZINC001282645012   -0.7100
18     C18     3.7218   -6.1135   -3.6981 C.2      1 ZINC001282645012    0.5100
19     O19     2.5250   -6.2599   -3.8290 O.2      1 ZINC001282645012   -0.5100
20     C20     4.6763   -7.0316   -4.4172 C.3      1 ZINC001282645012    0.1200
21     H21     5.2957   -7.5547   -3.6886 H        1 ZINC001282645012    0.1300
22     C22     3.8832   -8.0507   -5.2377 C.3      1 ZINC001282645012   -0.1100
23     C23     4.8475   -9.0509   -5.8785 C.3      1 ZINC001282645012   -0.1000
24     C24     5.5257   -9.8781   -4.7846 C.3      1 ZINC001282645012   -0.1500
25     C25     4.0712   -9.9805   -6.8134 C.3      1 ZINC001282645012   -0.1500
26     N26     5.5313   -6.2451   -5.3098 N.pl3    1 ZINC001282645012   -0.4500
27     C27     6.8999   -6.2237   -5.3131 C.2      1 ZINC001282645012   -0.0600
28     C28     7.2739   -5.3734   -6.2881 C.2      1 ZINC001282645012   -0.0200
29     N29     6.1640   -4.8887   -6.8643 N.2      1 ZINC001282645012   -0.4900
30     C30     5.1164   -5.4103   -6.2868 C.2      1 ZINC001282645012    0.1900
31     C31     3.9519   -3.5070   -0.9906 C.3      1 ZINC001282645012   -0.1400
32     H32     0.9796    2.3935   -1.1828 H        1 ZINC001282645012    0.1000
33     H33    -0.8859    2.3438   -1.0537 H        1 ZINC001282645012    0.1000
34     H34    -0.7995   -0.0206   -0.7155 H        1 ZINC001282645012    0.1100
35     H35     2.5453    1.5861   -0.2719 H        1 ZINC001282645012    0.0700
36     H36     3.5267    0.3267   -1.0587 H        1 ZINC001282645012    0.0700
37     H37     2.4261    1.3336   -2.0298 H        1 ZINC001282645012    0.0600
38     H38     0.8377   -1.5868    0.6634 H        1 ZINC001282645012    0.0600
39     H39     2.5992   -1.3787    0.5140 H        1 ZINC001282645012    0.0700
40     H40     1.6177   -0.1194    1.3008 H        1 ZINC001282645012    0.0700
41     H41     5.0329   -0.7571   -2.7694 H        1 ZINC001282645012    0.0800
42     H42     5.8357   -2.2957   -2.3179 H        1 ZINC001282645012    0.0800
43     H43     4.0006   -1.8186   -4.5508 H        1 ZINC001282645012    0.0700
44     H44     4.8034   -3.3571   -4.0993 H        1 ZINC001282645012    0.0800
45     H45     5.1553   -5.0127   -2.8048 H        1 ZINC001282645012    0.4000
46     H46     3.1896   -8.5814   -4.5855 H        1 ZINC001282645012    0.0900
47     H47     3.3248   -7.5334   -6.0179 H        1 ZINC001282645012    0.0800
48     H48     5.6044   -8.5119   -6.4483 H        1 ZINC001282645012    0.0700
49     H49     4.7688  -10.4171   -4.2147 H        1 ZINC001282645012    0.0600
50     H50     6.2127  -10.5906   -5.2411 H        1 ZINC001282645012    0.0600
51     H51     6.0787   -9.2158   -4.1185 H        1 ZINC001282645012    0.0500
52     H52     3.6591   -9.4024   -7.6406 H        1 ZINC001282645012    0.0600
53     H53     4.7418  -10.7460   -7.2037 H        1 ZINC001282645012    0.0600
54     H54     3.2596  -10.4552   -6.2621 H        1 ZINC001282645012    0.0600
55     H55     7.5541   -6.7814   -4.6593 H        1 ZINC001282645012    0.1700
56     H56     8.2896   -5.1251   -6.5586 H        1 ZINC001282645012    0.1700
57     H57     4.0879   -5.2035   -6.5433 H        1 ZINC001282645012    0.2000
58     H58     4.9964   -3.8050   -0.8996 H        1 ZINC001282645012    0.0900
59     H59     3.4106   -3.7144   -0.0676 H        1 ZINC001282645012    0.0900
@<TRIPOS>BOND
1     1     2     2
2     1     32    1
3     1     33    1
4     2     3     1
5     2     34    1
6     3     4     1
7     3     5     1
8     3     6     1
9     4     35    1
10    4     36    1
11    4     37    1
12    5     38    1
13    5     39    1
14    5     40    1
15    6     7     2
16    6     8     am
17    8     13    1
18    8     9     1
19    9     10    1
20    9     31    1
21    9     11    1
22    11    12    1
23    11    41    1
24    11    42    1
25    12    13    1
26    12    43    1
27    12    44    1
28    13    14    1
29    13    15    1
30    15    16    1
31    15    17    1
32    15    31    1
33    17    18    am
34    17    45    1
35    18    19    2
36    18    20    1
37    20    21    1
38    20    22    1
39    20    26    1
40    22    23    1
41    22    46    1
42    22    47    1
43    23    24    1
44    23    25    1
45    23    48    1
46    24    49    1
47    24    50    1
48    24    51    1
49    25    52    1
50    25    53    1
51    25    54    1
52    26    30    1
53    26    27    1
54    27    28    2
55    27    55    1
56    28    29    1
57    28    56    1
58    29    30    2
59    30    57    1
60    31    58    1
61    31    59    1
@<TRIPOS>SUBSTRUCTURE
1   ZINC001282645012 1     RESIDUE    1   A     ZIN   1
@<TRIPOS>MOLECULE
ZINC000840464592
58	59	1	0	0
SMALL
USER_CHARGES
@<TRIPOS>ATOM
1      C1     -4.5896    0.1000    0.8094 C.3      1 ZINC000840464592   -0.1500
2      C2     -4.2499   -1.3876    0.9219 C.3      1 ZINC000840464592   -0.1300
3      C3     -2.9270   -1.5533    1.6723 C.3      1 ZINC000840464592   -0.1200
4      C4     -2.5873   -3.0409    1.7848 C.3      1 ZINC000840464592   -0.1200
5      C5     -1.2644   -3.2066    2.5353 C.3      1 ZINC000840464592   -0.1200
6      C6     -0.9247   -4.6942    2.6478 C.3      1 ZINC000840464592    0.0600
7      O7      0.3109   -4.8490    3.3487 O.3      1 ZINC000840464592   -0.3600
8      C8      0.7218   -6.2082    3.5092 C.3      1 ZINC000840464592    0.0800
9      H9     -0.1578   -6.8499    3.5618 H        1 ZINC000840464592    0.0800
10     C10     1.5859   -6.6240    2.3170 C.3      1 ZINC000840464592   -0.1800
11     C11     1.5200   -6.3450    4.7801 C.2      1 ZINC000840464592    0.5200
12     O12     1.9318   -5.3551    5.3471 O.2      1 ZINC000840464592   -0.5000
13     N13     1.7763   -7.5673    5.2867 N.am     1 ZINC000840464592   -0.6000
14     C14     1.3760   -8.7597    4.5440 C.3      1 ZINC000840464592    0.0900
15     C15     0.3477   -9.5796    5.3151 C.3      1 ZINC000840464592   -0.1600
16     C16     0.9521  -10.0851    6.6270 C.3      1 ZINC000840464592    0.0800
17     N17     0.7347   -9.0802    7.6734 N.am     1 ZINC000840464592   -0.7200
18     C18     1.4148   -7.9229    7.6547 C.2      1 ZINC000840464592    0.5100
19     O19     1.1977   -7.0709    8.4902 O.2      1 ZINC000840464592   -0.5200
20     C20     2.4610   -7.6927    6.5777 C.3      1 ZINC000840464592    0.1400
21     H21     3.0109   -6.7764    6.7920 H        1 ZINC000840464592    0.1300
22     C22     3.4299   -8.8763    6.5421 C.3      1 ZINC000840464592   -0.1000
23     C23     4.7955   -8.3952    6.1242 C.ar     1 ZINC000840464592   -0.0900
24     C24     5.1746   -8.4596    4.7964 C.ar     1 ZINC000840464592   -0.1100
25     C25     6.4272   -8.0183    4.4130 C.ar     1 ZINC000840464592   -0.1200
26     C26     7.3006   -7.5122    5.3574 C.ar     1 ZINC000840464592   -0.1200
27     C27     6.9212   -7.4469    6.6850 C.ar     1 ZINC000840464592   -0.1200
28     C28     5.6670   -7.8843    7.0677 C.ar     1 ZINC000840464592   -0.1100
29     H29    -3.7967    0.6136    0.2657 H        1 ZINC000840464592    0.0500
30     H30    -5.5321    0.2180    0.2747 H        1 ZINC000840464592    0.0500
31     H31    -4.6820    0.5280    1.8075 H        1 ZINC000840464592    0.0500
32     H32    -5.0429   -1.9012    1.4655 H        1 ZINC000840464592    0.0600
33     H33    -4.1575   -1.8157   -0.0763 H        1 ZINC000840464592    0.0600
34     H34    -2.1340   -1.0397    1.1287 H        1 ZINC000840464592    0.0600
35     H35    -3.0194   -1.1253    2.6705 H        1 ZINC000840464592    0.0600
36     H36    -3.3802   -3.5545    2.3285 H        1 ZINC000840464592    0.0600
37     H37    -2.4949   -3.4690    0.7867 H        1 ZINC000840464592    0.0600
38     H38    -0.4714   -2.6930    1.9916 H        1 ZINC000840464592    0.0700
39     H39    -1.3568   -2.7786    3.5334 H        1 ZINC000840464592    0.0700
40     H40    -1.7176   -5.2078    3.1914 H        1 ZINC000840464592    0.0500
41     H41    -0.8323   -5.1223    1.6496 H        1 ZINC000840464592    0.0500
42     H42     1.9579   -7.6365    2.4735 H        1 ZINC000840464592    0.0800
43     H43     0.9876   -6.5933    1.4064 H        1 ZINC000840464592    0.0700
44     H44     2.4278   -5.9383    2.2219 H        1 ZINC000840464592    0.0800
45     H45     0.9465   -8.4570    3.5890 H        1 ZINC000840464592    0.1000
46     H46     2.2558   -9.3757    4.3582 H        1 ZINC000840464592    0.0800
47     H47    -0.5203   -8.9574    5.5333 H        1 ZINC000840464592    0.0800
48     H48     0.0364  -10.4306    4.7093 H        1 ZINC000840464592    0.1000
49     H49     0.4706  -11.0200    6.9138 H        1 ZINC000840464592    0.0900
50     H50     2.0216  -10.2496    6.4961 H        1 ZINC000840464592    0.1000
51     H51     0.0958   -9.2527    8.3826 H        1 ZINC000840464592    0.4000
52     H52     3.4907   -9.3261    7.5331 H        1 ZINC000840464592    0.0900
53     H53     3.0716   -9.6178    5.8280 H        1 ZINC000840464592    0.1000
54     H54     4.4922   -8.8551    4.0585 H        1 ZINC000840464592    0.1200
55     H55     6.7236   -8.0693    3.3757 H        1 ZINC000840464592    0.1200
56     H56     8.2796   -7.1680    5.0580 H        1 ZINC000840464592    0.1200
57     H57     7.6038   -7.0518    7.4229 H        1 ZINC000840464592    0.1200
58     H58     5.3706   -7.8333    8.1050 H        1 ZINC000840464592    0.1200
@<TRIPOS>BOND
1     1     2     1
2     1     29    1
3     1     30    1
4     1     31    1
5     2     3     1
6     2     32    1
7     2     33    1
8     3     4     1
9     3     34    1
10    3     35    1
11    4     5     1
12    4     36    1
13    4     37    1
14    5     6     1
15    5     38    1
16    5     39    1
17    6     7     1
18    6     40    1
19    6     41    1
20    7     8     1
21    8     9     1
22    8     10    1
23    8     11    1
24    10    42    1
25    10    43    1
26    10    44    1
27    11    12    2
28    11    13    am
29    13    20    1
30    13    14    1
31    14    15    1
32    14    45    1
33    14    46    1
34    15    16    1
35    15    47    1
36    15    48    1
37    16    17    1
38    16    49    1
39    16    50    1
40    17    18    am
41    17    51    1
42    18    19    2
43    18    20    1
44    20    21    1
45    20    22    1
46    22    23    1
47    22    52    1
48    22    53    1
49    23    28    ar
50    23    24    ar
51    24    25    ar
52    24    54    1
53    25    26    ar
54    25    55    1
55    26    27    ar
56    26    56    1
57    27    28    ar
58    27    57    1
59    28    58    1
@<TRIPOS>SUBSTRUCTURE
1   ZINC000840464592 1     RESIDUE    1   A     ZIN   1
@<TRIPOS>MOLECULE
ZINC001162683355
49	52	1	0	0
SMALL
USER_CHARGES
@<TRIPOS>ATOM
1      C1     -7.7655    1.8840   -2.5551 C.3      1 ZINC001162683355    0.0200
2      N2     -6.3640    1.4750   -2.3925 N.3      1 ZINC001162683355   -0.5400
3      C3     -5.9859    0.4765   -3.4031 C.3      1 ZINC001162683355    0.0100
4      C4     -4.5056    0.1236   -3.2352 C.3      1 ZINC001162683355    0.0600
5      O5     -4.2801   -0.3429   -1.9022 O.3      1 ZINC001162683355   -0.3800
6      C6     -4.6370    0.6049   -0.8924 C.3      1 ZINC001162683355    0.0800
7      H7     -4.0319    1.5043   -1.0073 H        1 ZINC001162683355    0.0700
8      C8     -4.3904   -0.0036    0.4895 C.3      1 ZINC001162683355    0.1500
9      N9     -2.9560   -0.2402    0.6701 N.pl3    1 ZINC001162683355   -0.7300
10     C10    -2.4863   -0.7917    1.8570 C.ar     1 ZINC001162683355    0.4300
11     C11    -1.1117   -0.9158    2.0721 C.ar     1 ZINC001162683355   -0.0100
12     C12    -0.6708   -1.4779    3.2841 C.ar     1 ZINC001162683355   -0.0400
13     C13    -1.6269   -1.8886    4.2227 C.ar     1 ZINC001162683355   -0.1800
14     C14    -2.9497   -1.7292    3.9282 C.ar     1 ZINC001162683355    0.1000
15     N15    -3.3420   -1.1975    2.7805 N.ar     1 ZINC001162683355   -0.5400
16     C16     0.7878   -1.4777    3.2247 C.2      1 ZINC001162683355   -0.2200
17     C17     1.1322   -0.9476    2.0375 C.2      1 ZINC001162683355    0.0800
18     N18     0.0103   -0.6019    1.3395 N.pl3    1 ZINC001162683355   -0.4600
19     C19     0.0023    0.0067    0.0069 C.3      1 ZINC001162683355    0.1500
20     C20     1.4125    0.0824   -0.5192 C.ar     1 ZINC001162683355   -0.1100
21     C21     2.1497    1.2403   -0.3561 C.ar     1 ZINC001162683355   -0.1000
22     C22     3.4448    1.3082   -0.8348 C.ar     1 ZINC001162683355   -0.1200
23     C23     3.9993    0.2215   -1.4847 C.ar     1 ZINC001162683355   -0.1100
24     C24     3.2602   -0.9346   -1.6524 C.ar     1 ZINC001162683355   -0.1200
25     C25     1.9667   -1.0040   -1.1698 C.ar     1 ZINC001162683355   -0.1000
26     C26    -6.1186    0.9627   -1.0366 C.3      1 ZINC001162683355    0.0300
27     H27    -8.4167    1.0283   -2.3766 H        1 ZINC001162683355    0.0300
28     H28    -7.9989    2.6734   -1.8407 H        1 ZINC001162683355    0.0700
29     H29    -7.9209    2.2537   -3.5687 H        1 ZINC001162683355    0.0700
30     H30    -6.1517    0.8862   -4.3994 H        1 ZINC001162683355    0.0900
31     H31    -6.5910   -0.4207   -3.2724 H        1 ZINC001162683355    0.0500
32     H32    -3.8973    1.0093   -3.4187 H        1 ZINC001162683355    0.0600
33     H33    -4.2343   -0.6578   -3.9451 H        1 ZINC001162683355    0.1000
34     H34    -4.9276   -0.9485    0.5715 H        1 ZINC001162683355    0.0700
35     H35    -4.7449    0.6837    1.2577 H        1 ZINC001162683355    0.0800
36     H36    -2.3339   -0.0120   -0.0383 H        1 ZINC001162683355    0.4000
37     H37    -1.3221   -2.3235    5.1631 H        1 ZINC001162683355    0.1300
38     H38    -3.6926   -2.0429    4.6466 H        1 ZINC001162683355    0.1500
39     H39     1.4621   -1.8389    3.9871 H        1 ZINC001162683355    0.1500
40     H40     2.1455   -0.8131    1.6889 H        1 ZINC001162683355    0.1700
41     H41    -0.4169    1.0110    0.0686 H        1 ZINC001162683355    0.0900
42     H42    -0.6044   -0.5996   -0.6657 H        1 ZINC001162683355    0.0900
43     H43     1.7152    2.0907    0.1483 H        1 ZINC001162683355    0.1200
44     H44     4.0224    2.2113   -0.7035 H        1 ZINC001162683355    0.1300
45     H45     5.0102    0.2755   -1.8610 H        1 ZINC001162683355    0.1300
46     H46     3.6935   -1.7836   -2.1601 H        1 ZINC001162683355    0.1300
47     H47     1.3892   -1.9072   -1.3009 H        1 ZINC001162683355    0.1200
48     H48    -6.7258    0.0733   -0.8681 H        1 ZINC001162683355    0.0500
49     H49    -6.3812    1.7273   -0.3055 H        1 ZINC001162683355    0.0900
@<TRIPOS>BOND
1     1     2     1
2     1     27    1
3     1     28    1
4     1     29    1
5     2     26    1
6     2     3     1
7     3     4     1
8     3     30    1
9     3     31    1
10    4     5     1
11    4     32    1
12    4     33    1
13    5     6     1
14    6     7     1
15    6     8     1
16    6     26    1
17    8     9     1
18    8     34    1
19    8     35    1
20    9     10    1
21    9     36    1
22    10    15    ar
23    10    11    ar
24    11    18    1
25    11    12    ar
26    12    13    ar
27    12    16    1
28    13    14    ar
29    13    37    1
30    14    15    ar
31    14    38    1
32    16    17    2
33    16    39    1
34    17    18    1
35    17    40    1
36    18    19    1
37    19    20    1
38    19    41    1
39    19    42    1
40    20    25    ar
41    20    21    ar
42    21    22    ar
43    21    43    1
44    22    23    ar
45    22    44    1
46    23    24    ar
47    23    45    1
48    24    25    ar
49    24    46    1
50    25    47    1
51    26    48    1
52    26    49    1
@<TRIPOS>SUBSTRUCTURE
1   ZINC001162683355 1     RESIDUE    1   A     ZIN   1
@<TRIPOS>MOLECULE
ZINC000654672208
52	54	1	0	0
SMALL
USER_CHARGES
@<TRIPOS>ATOM
1      C1      5.1982    1.5671    0.1738 C.3      1 ZINC000654672208   -0.1100
2      C2      5.2192    0.0666    0.0362 C.ar     1 ZINC000654672208   -0.1300
3      C3      5.2410   -0.7388    1.1588 C.ar     1 ZINC000654672208    0.1000
4      N4      5.2590   -2.0527    1.0463 N.ar     1 ZINC000654672208   -0.4700
5      C5      5.2569   -2.6479   -0.1303 C.ar     1 ZINC000654672208    0.1200
6      C6      5.2780   -4.1530   -0.2035 C.3      1 ZINC000654672208   -0.0900
7      C7      3.8429   -4.6832   -0.2152 C.3      1 ZINC000654672208    0.1500
8      N8      3.8634   -6.1463   -0.2865 N.am     1 ZINC000654672208   -0.7500
9      C9      2.7058   -6.8362   -0.3087 C.2      1 ZINC000654672208    0.7100
10     O10     1.6474   -6.2521   -0.1784 O.2      1 ZINC000654672208   -0.5800
11     N11     2.7214   -8.1735   -0.4752 N.am     1 ZINC000654672208   -0.6300
12     C12     1.4667   -8.9237   -0.6221 C.3      1 ZINC000654672208    0.1300
13     C13     1.4436  -10.0514    0.4144 C.3      1 ZINC000654672208   -0.1400
14     C14     2.7057  -10.9031    0.2648 C.3      1 ZINC000654672208   -0.1100
15     C15     3.9424  -10.0353    0.5270 C.3      1 ZINC000654672208   -0.0600
16     C16     5.2003  -10.8991    0.3888 C.3      1 ZINC000654672208   -0.1200
17     C17     6.3031  -10.3234    1.3140 C.3      1 ZINC000654672208   -0.5800
18     S18     5.3318   -9.9346    2.8255 S.o2     1 ZINC000654672208    2.3800
19     O19     5.0679  -11.1318    3.5440 O.2      1 ZINC000654672208   -0.9300
20     O20     5.9085   -8.8182    3.4890 O.2      1 ZINC000654672208   -0.9300
21     C21     3.8231   -9.4109    1.9279 C.3      1 ZINC000654672208   -0.5800
22     C22     3.9933   -8.9068   -0.5192 C.3      1 ZINC000654672208    0.1200
23     C23     5.2352   -1.9074   -1.2972 C.ar     1 ZINC000654672208   -0.1200
24     C24     5.2325   -2.5958   -2.6378 C.3      1 ZINC000654672208   -0.1200
25     C25     5.2110   -0.5235   -1.2187 C.ar     1 ZINC000654672208   -0.0800
26     H26     4.1657    1.9133    0.2211 H        1 ZINC000654672208    0.0700
27     H27     5.7203    1.8556    1.0862 H        1 ZINC000654672208    0.0700
28     H28     5.6935    2.0178   -0.6862 H        1 ZINC000654672208    0.0700
29     H29     5.2438   -0.2870    2.1398 H        1 ZINC000654672208    0.1600
30     H30     5.7882   -4.4653   -1.1148 H        1 ZINC000654672208    0.0900
31     H31     5.8055   -4.5516    0.6630 H        1 ZINC000654672208    0.0900
32     H32     3.3327   -4.3709    0.6960 H        1 ZINC000654672208    0.0700
33     H33     3.3153   -4.2846   -1.0818 H        1 ZINC000654672208    0.0700
34     H34     4.7101   -6.6185   -0.3177 H        1 ZINC000654672208    0.3900
35     H35     0.6206   -8.2569   -0.4559 H        1 ZINC000654672208    0.1000
36     H36     1.4095   -9.3475   -1.6247 H        1 ZINC000654672208    0.0700
37     H37     1.4100   -9.6238    1.4165 H        1 ZINC000654672208    0.0700
38     H38     0.5634  -10.6743    0.2547 H        1 ZINC000654672208    0.0800
39     H39     2.6782  -11.7227    0.9828 H        1 ZINC000654672208    0.0800
40     H40     2.7534  -11.3074   -0.7463 H        1 ZINC000654672208    0.0800
41     H41     4.9747  -11.9245    0.6817 H        1 ZINC000654672208    0.1000
42     H42     5.5442  -10.8828   -0.6454 H        1 ZINC000654672208    0.1000
43     H43     7.0698  -11.0698    1.5217 H        1 ZINC000654672208    0.1400
44     H44     6.7418   -9.4216    0.8870 H        1 ZINC000654672208    0.1400
45     H45     3.7859   -8.3241    1.8546 H        1 ZINC000654672208    0.1400
46     H46     2.9337   -9.7864    2.4338 H        1 ZINC000654672208    0.1400
47     H47     4.1414   -9.3342   -1.5109 H        1 ZINC000654672208    0.0800
48     H48     4.8133   -8.2280   -0.2851 H        1 ZINC000654672208    0.0800
49     H49     4.2043   -2.7766   -2.9513 H        1 ZINC000654672208    0.0800
50     H50     5.7303   -1.9627   -3.3723 H        1 ZINC000654672208    0.0700
51     H51     5.7609   -3.5459   -2.5594 H        1 ZINC000654672208    0.0700
52     H52     5.1937    0.0807   -2.1137 H        1 ZINC000654672208    0.1300
@<TRIPOS>BOND
1     1     2     1
2     1     26    1
3     1     27    1
4     1     28    1
5     2     25    ar
6     2     3     ar
7     3     4     ar
8     3     29    1
9     4     5     ar
10    5     6     1
11    5     23    ar
12    6     7     1
13    6     30    1
14    6     31    1
15    7     8     1
16    7     32    1
17    7     33    1
18    8     9     am
19    8     34    1
20    9     10    2
21    9     11    am
22    11    22    1
23    11    12    1
24    12    13    1
25    12    35    1
26    12    36    1
27    13    14    1
28    13    37    1
29    13    38    1
30    14    15    1
31    14    39    1
32    14    40    1
33    15    21    1
34    15    16    1
35    15    22    1
36    16    17    1
37    16    41    1
38    16    42    1
39    17    18    1
40    17    43    1
41    17    44    1
42    18    19    2
43    18    20    2
44    18    21    1
45    21    45    1
46    21    46    1
47    22    47    1
48    22    48    1
49    23    24    1
50    23    25    ar
51    24    49    1
52    24    50    1
53    24    51    1
54    25    52    1
@<TRIPOS>SUBSTRUCTURE
1   ZINC000654672208 1     RESIDUE    1   A     ZIN   1
@<TRIPOS>MOLECULE
ZINC000506156755
50	53	1	0	0
SMALL
USER_CHARGES
@<TRIPOS>ATOM
1      C1     -0.0459    1.4468   -0.3141 C.3      1 ZINC000506156755   -0.1600
2      C2     -0.0767   -0.0558   -0.0278 C.3      1 ZINC000506156755    0.1900
3      H3      0.3956   -0.2521    0.9347 H        1 ZINC000506156755    0.1000
4      N4      0.6487   -0.7688   -1.0822 N.am     1 ZINC000506156755   -0.7200
5      C5      1.9929   -0.8545   -1.0358 C.2      1 ZINC000506156755    0.5000
6      O6      2.6020   -0.3413   -0.1212 O.2      1 ZINC000506156755   -0.5200
7      C7      2.7391   -1.5879   -2.1204 C.3      1 ZINC000506156755    0.0900
8      N8      4.1767   -1.5388   -1.8430 N.am     1 ZINC000506156755   -0.5600
9      C9      5.0026   -0.5689   -2.2755 C.2      1 ZINC000506156755    0.5800
10     O10     4.6796    0.3898   -2.9474 O.2      1 ZINC000506156755   -0.4600
11     C11     6.3689   -0.8650   -1.7954 C.ar     1 ZINC000506156755   -0.1400
12     C12     7.5973   -0.2382   -1.9260 C.ar     1 ZINC000506156755   -0.0400
13     C13     8.7201   -0.7962   -1.3340 C.ar     1 ZINC000506156755   -0.0900
14     C14     8.6217   -1.9723   -0.6153 C.ar     1 ZINC000506156755   -0.0900
15     C15     7.3988   -2.6108   -0.4762 C.ar     1 ZINC000506156755   -0.0400
16     C16     6.2685   -2.0650   -1.0622 C.ar     1 ZINC000506156755   -0.1400
17     C17     4.8436   -2.4545   -1.1175 C.2      1 ZINC000506156755    0.5800
18     O18     4.3568   -3.4377   -0.5967 O.2      1 ZINC000506156755   -0.4600
19     C19    -1.5064   -0.5311    0.0080 C.ar     1 ZINC000506156755   -0.1200
20     C20    -2.1013   -1.0197   -1.1387 C.ar     1 ZINC000506156755   -0.0800
21     C21    -3.4130   -1.4564   -1.1065 C.ar     1 ZINC000506156755   -0.1400
22     C22    -4.1323   -1.4054    0.0731 C.ar     1 ZINC000506156755   -0.0800
23     C23    -3.5420   -0.9176    1.2230 C.ar     1 ZINC000506156755   -0.1900
24     C24    -2.2245   -0.4837    1.1946 C.ar     1 ZINC000506156755    0.1300
25     O25    -1.6414   -0.0039    2.3243 O.3      1 ZINC000506156755   -0.2500
26     C26    -2.3481   -0.0670    3.4832 C.ar     1 ZINC000506156755    0.0800
27     C27    -2.6165   -1.2965    4.0676 C.ar     1 ZINC000506156755   -0.1400
28     C28    -3.3352   -1.3578    5.2457 C.ar     1 ZINC000506156755   -0.1000
29     C29    -3.7871   -0.1953    5.8425 C.ar     1 ZINC000506156755   -0.1200
30     C30    -3.5211    1.0312    5.2622 C.ar     1 ZINC000506156755   -0.1000
31     C31    -2.7979    1.0985    4.0872 C.ar     1 ZINC000506156755   -0.1200
32     H32     0.9882    1.7906   -0.3400 H        1 ZINC000506156755    0.0700
33     H33    -0.5182    1.6431   -1.2766 H        1 ZINC000506156755    0.0600
34     H34    -0.5856    1.9773    0.4704 H        1 ZINC000506156755    0.0700
35     H35     0.1615   -1.1793   -1.8137 H        1 ZINC000506156755    0.4000
36     H36     2.4099   -2.6266   -2.1493 H        1 ZINC000506156755    0.1300
37     H37     2.5383   -1.1162   -3.0823 H        1 ZINC000506156755    0.1300
38     H38     7.6802    0.6810   -2.4869 H        1 ZINC000506156755    0.1400
39     H39     9.6783   -0.3084   -1.4356 H        1 ZINC000506156755    0.1400
40     H40     9.5035   -2.3974   -0.1591 H        1 ZINC000506156755    0.1400
41     H41     7.3277   -3.5296    0.0870 H        1 ZINC000506156755    0.1400
42     H42    -1.5417   -1.0603   -2.0616 H        1 ZINC000506156755    0.1300
43     H43    -3.8764   -1.8377   -2.0044 H        1 ZINC000506156755    0.1300
44     H44    -5.1567   -1.7468    0.0956 H        1 ZINC000506156755    0.1300
45     H45    -4.1044   -0.8776    2.1441 H        1 ZINC000506156755    0.1300
46     H46    -2.2640   -2.2048    3.6017 H        1 ZINC000506156755    0.1300
47     H47    -3.5446   -2.3146    5.7008 H        1 ZINC000506156755    0.1300
48     H48    -4.3492   -0.2454    6.7634 H        1 ZINC000506156755    0.1300
49     H49    -3.8752    1.9378    5.7304 H        1 ZINC000506156755    0.1300
50     H50    -2.5901    2.0567    3.6345 H        1 ZINC000506156755    0.1300
@<TRIPOS>BOND
1     1     2     1
2     1     32    1
3     1     33    1
4     1     34    1
5     2     3     1
6     2     4     1
7     2     19    1
8     4     5     am
9     4     35    1
10    5     6     2
11    5     7     1
12    7     8     1
13    7     36    1
14    7     37    1
15    8     17    am
16    8     9     am
17    9     10    2
18    9     11    1
19    11    16    ar
20    11    12    ar
21    12    13    ar
22    12    38    1
23    13    14    ar
24    13    39    1
25    14    15    ar
26    14    40    1
27    15    16    ar
28    15    41    1
29    16    17    1
30    17    18    2
31    19    24    ar
32    19    20    ar
33    20    21    ar
34    20    42    1
35    21    22    ar
36    21    43    1
37    22    23    ar
38    22    44    1
39    23    24    ar
40    23    45    1
41    24    25    1
42    25    26    1
43    26    31    ar
44    26    27    ar
45    27    28    ar
46    27    46    1
47    28    29    ar
48    28    47    1
49    29    30    ar
50    29    48    1
51    30    31    ar
52    30    49    1
53    31    50    1
@<TRIPOS>SUBSTRUCTURE
1   ZINC000506156755 1     RESIDUE    1   A     ZIN   1
@<TRIPOS>MOLECULE
ZINC001513543414
58	61	1	0	0
SMALL
USER_CHARGES
@<TRIPOS>ATOM
1      C1     -8.1257    0.1548    7.8400 C.3      1 ZINC001513543414   -0.1500
2      C2     -8.9170    0.0934    6.5320 C.3      1 ZINC001513543414   -0.1200
3      C3     -8.2504   -0.9004    5.5788 C.3      1 ZINC001513543414    0.1100
4      C4     -8.2072   -2.2877    6.2226 C.3      1 ZINC001513543414   -0.1500
5      C5     -9.0366   -0.9612    4.2516 C.3      1 ZINC001513543414   -0.1500
6      C6     -7.8993   -1.0659    3.1992 C.3      1 ZINC001513543414   -0.1500
7      C7     -6.8000   -0.2022    3.8672 C.3      1 ZINC001513543414    0.0700
8      H8     -6.9730    0.8545    3.6631 H        1 ZINC001513543414    0.0800
9      C9     -5.4170   -0.6200    3.3634 C.3      1 ZINC001513543414    0.1100
10     N10    -4.4025    0.2781    3.9205 N.pl3    1 ZINC001513543414   -0.4600
11     C11    -3.7253    0.1286    5.0990 C.2      1 ZINC001513543414    0.1900
12     C12    -3.8821   -1.0029    6.0819 C.3      1 ZINC001513543414    0.1800
13     H13    -4.7998   -1.5549    5.8791 H        1 ZINC001513543414    0.1000
14     C14    -2.6579   -1.9501    6.0113 C.3      1 ZINC001513543414   -0.1500
15     C15    -2.6905   -2.5803    7.4304 C.3      1 ZINC001513543414   -0.1500
16     C16    -3.2098   -1.4120    8.2958 C.3      1 ZINC001513543414    0.0500
17     O17    -3.8909   -0.4976    7.4265 O.3      1 ZINC001513543414   -0.3500
18     N18    -2.9187    1.1454    5.2141 N.2      1 ZINC001513543414   -0.2600
19     N19    -3.0393    1.9211    4.1965 N.2      1 ZINC001513543414   -0.3100
20     C20    -3.9330    1.4342    3.3682 C.2      1 ZINC001513543414    0.3400
21     N21    -4.3312    1.9930    2.1642 N.3      1 ZINC001513543414   -0.4500
22     C22    -3.4122    1.6082    1.0719 C.3      1 ZINC001513543414    0.0500
23     C23    -3.3819    2.8369    0.1291 C.3      1 ZINC001513543414   -0.1500
24     C24    -3.4436    4.0105    1.1418 C.3      1 ZINC001513543414    0.0700
25     H25    -2.4524    4.2295    1.5389 H        1 ZINC001513543414    0.0800
26     O26    -4.0107    5.1730    0.5341 O.3      1 ZINC001513543414   -0.3800
27     C27    -3.0481    6.0474   -0.0582 C.3      1 ZINC001513543414    0.0300
28     C28    -4.3673    3.4644    2.2509 C.3      1 ZINC001513543414    0.0600
29     O29    -6.9203   -0.4644    5.2744 O.3      1 ZINC001513543414   -0.3600
30     H30    -8.6007    0.8628    8.5191 H        1 ZINC001513543414    0.0500
31     H31    -8.1071   -0.8332    8.3001 H        1 ZINC001513543414    0.0500
32     H32    -7.1057    0.4784    7.6328 H        1 ZINC001513543414    0.0600
33     H33    -9.9370   -0.2302    6.7392 H        1 ZINC001513543414    0.0700
34     H34    -8.9357    1.0814    6.0720 H        1 ZINC001513543414    0.0600
35     H35    -9.2233   -2.6257    6.4259 H        1 ZINC001513543414    0.0700
36     H36    -7.7202   -2.9882    5.5441 H        1 ZINC001513543414    0.0600
37     H37    -7.6473   -2.2376    7.1564 H        1 ZINC001513543414    0.0700
38     H38    -9.6768   -1.8428    4.2199 H        1 ZINC001513543414    0.0900
39     H39    -9.6192   -0.0518    4.1039 H        1 ZINC001513543414    0.0800
40     H40    -7.5692   -2.0978    3.0790 H        1 ZINC001513543414    0.0800
41     H41    -8.2073   -0.6402    2.2442 H        1 ZINC001513543414    0.0900
42     H42    -5.2093   -1.6426    3.6782 H        1 ZINC001513543414    0.1000
43     H43    -5.3944   -0.5631    2.2751 H        1 ZINC001513543414    0.1100
44     H44    -2.7927   -2.7095    5.2410 H        1 ZINC001513543414    0.0900
45     H45    -1.7366   -1.3901    5.8512 H        1 ZINC001513543414    0.0900
46     H46    -3.3795   -3.4243    7.4643 H        1 ZINC001513543414    0.0800
47     H47    -1.6910   -2.8812    7.7443 H        1 ZINC001513543414    0.0900
48     H48    -3.9016   -1.7889    9.0490 H        1 ZINC001513543414    0.0700
49     H49    -2.3722   -0.9096    8.7796 H        1 ZINC001513543414    0.0700
50     H50    -2.4161    1.4082    1.4668 H        1 ZINC001513543414    0.0600
51     H51    -3.7947    0.7344    0.5443 H        1 ZINC001513543414    0.0900
52     H52    -2.4561    2.8654   -0.4456 H        1 ZINC001513543414    0.0800
53     H53    -4.2495    2.8444   -0.5306 H        1 ZINC001513543414    0.0900
54     H54    -3.5579    6.9048   -0.4976 H        1 ZINC001513543414    0.0900
55     H55    -2.3511    6.3914    0.7059 H        1 ZINC001513543414    0.0400
56     H56    -2.5010    5.5128   -0.8348 H        1 ZINC001513543414    0.0400
57     H57    -5.3856    3.8203    2.0940 H        1 ZINC001513543414    0.1000
58     H58    -4.0055    3.7874    3.2271 H        1 ZINC001513543414    0.0900
@<TRIPOS>BOND
1     1     2     1
2     1     30    1
3     1     31    1
4     1     32    1
5     2     3     1
6     2     33    1
7     2     34    1
8     3     29    1
9     3     4     1
10    3     5     1
11    4     35    1
12    4     36    1
13    4     37    1
14    5     6     1
15    5     38    1
16    5     39    1
17    6     7     1
18    6     40    1
19    6     41    1
20    7     8     1
21    7     9     1
22    7     29    1
23    9     10    1
24    9     42    1
25    9     43    1
26    10    20    1
27    10    11    1
28    11    12    1
29    11    18    2
30    12    13    1
31    12    17    1
32    12    14    1
33    14    15    1
34    14    44    1
35    14    45    1
36    15    16    1
37    15    46    1
38    15    47    1
39    16    17    1
40    16    48    1
41    16    49    1
42    18    19    1
43    19    20    2
44    20    21    1
45    21    28    1
46    21    22    1
47    22    23    1
48    22    50    1
49    22    51    1
50    23    24    1
51    23    52    1
52    23    53    1
53    24    25    1
54    24    26    1
55    24    28    1
56    26    27    1
57    27    54    1
58    27    55    1
59    27    56    1
60    28    57    1
61    28    58    1
@<TRIPOS>SUBSTRUCTURE
1   ZINC001513543414 1     RESIDUE    1   A     ZIN   1
@<TRIPOS>MOLECULE
ZINC000441887161
52	54	1	0	0
SMALL
USER_CHARGES
@<TRIPOS>ATOM
1      C1      0.6415    1.5803   -1.0188 C.3      1 ZINC000441887161   -0.1200
2      C2      0.4885    0.0987   -0.7897 C.ar     1 ZINC000441887161   -0.0700
3      C3      0.2275   -0.7420   -1.8552 C.ar     1 ZINC000441887161   -0.1200
4      C4      0.0872   -2.1013   -1.6450 C.ar     1 ZINC000441887161   -0.0900
5      C5      0.2084   -2.6195   -0.3695 C.ar     1 ZINC000441887161   -0.1100
6      C6      0.0550   -4.1010   -0.1403 C.3      1 ZINC000441887161    0.1900
7      H7      0.7315   -4.4179    0.6535 H        1 ZINC000441887161    0.1000
8      C8     -1.3877   -4.4074    0.2666 C.3      1 ZINC000441887161    0.1000
9      N9     -1.5061   -5.8254    0.6155 N.pl3    1 ZINC000441887161   -0.4600
10     C10    -1.7346   -6.8590   -0.2523 C.2      1 ZINC000441887161   -0.0500
11     C11    -1.7695   -7.9858    0.4844 C.2      1 ZINC000441887161   -0.0200
12     N12    -1.5679   -7.6493    1.7670 N.2      1 ZINC000441887161   -0.4900
13     C13    -1.4043   -6.3574    1.8525 C.2      1 ZINC000441887161    0.1800
14     N14     0.3781   -4.8220   -1.3740 N.am     1 ZINC000441887161   -1.1100
15     S15     1.9024   -5.4267   -1.6047 S.o2     1 ZINC000441887161    2.6900
16     O16     1.8862   -6.0861   -2.8633 O.2      1 ZINC000441887161   -0.9600
17     O17     2.8035   -4.3739   -1.2903 O.2      1 ZINC000441887161   -0.9500
18     C18     2.1563   -6.6781   -0.3906 C.ar     1 ZINC000441887161   -0.6800
19     C19     2.5999   -6.3355    0.8728 C.ar     1 ZINC000441887161   -0.0300
20     C20     2.7992   -7.3174    1.8254 C.ar     1 ZINC000441887161   -0.1300
21     C21     2.5543   -8.6417    1.5146 C.ar     1 ZINC000441887161   -0.0200
22     C22     2.7720   -9.7121    2.5528 C.3      1 ZINC000441887161   -0.1300
23     C23     2.1093   -8.9843    0.2512 C.ar     1 ZINC000441887161   -0.1000
24     C24     1.8419  -10.4282   -0.0876 C.3      1 ZINC000441887161   -0.1200
25     C25     1.9064   -8.0023   -0.6999 C.ar     1 ZINC000441887161   -0.0100
26     C26     0.4709   -1.7787    0.6962 C.ar     1 ZINC000441887161   -0.0700
27     C27     0.6035   -2.3437    2.0869 C.3      1 ZINC000441887161   -0.1300
28     C28     0.6149   -0.4203    0.4855 C.ar     1 ZINC000441887161   -0.1200
29     H29     1.6867    1.8100   -1.2259 H        1 ZINC000441887161    0.0700
30     H30     0.0281    1.8819   -1.8678 H        1 ZINC000441887161    0.0700
31     H31     0.3203    2.1207   -0.1283 H        1 ZINC000441887161    0.0700
32     H32     0.1328   -0.3371   -2.8520 H        1 ZINC000441887161    0.1200
33     H33    -0.1175   -2.7581   -2.4776 H        1 ZINC000441887161    0.1200
34     H34    -1.6597   -3.7974    1.1280 H        1 ZINC000441887161    0.1100
35     H35    -2.0556   -4.1808   -0.5645 H        1 ZINC000441887161    0.1000
36     H36    -1.8626   -6.7851   -1.3222 H        1 ZINC000441887161    0.1700
37     H37    -1.9315   -8.9851    0.1083 H        1 ZINC000441887161    0.1600
38     H38    -1.2240   -5.8046    2.7626 H        1 ZINC000441887161    0.2000
39     H39    -0.3009   -4.9452   -2.0557 H        1 ZINC000441887161    0.4200
40     H40     2.7912   -5.3007    1.1157 H        1 ZINC000441887161    0.1300
41     H41     3.1465   -7.0497    2.8124 H        1 ZINC000441887161    0.1300
42     H42     1.8516   -9.8639    3.1166 H        1 ZINC000441887161    0.0800
43     H43     3.0547  -10.6430    2.0612 H        1 ZINC000441887161    0.0800
44     H44     3.5672   -9.4036    3.2315 H        1 ZINC000441887161    0.0700
45     H45     0.8046  -10.6698    0.1445 H        1 ZINC000441887161    0.0800
46     H46     2.0242  -10.5920   -1.1496 H        1 ZINC000441887161    0.0700
47     H47     2.5034  -11.0672    0.4974 H        1 ZINC000441887161    0.0700
48     H48     1.5588   -8.2700   -1.6868 H        1 ZINC000441887161    0.1400
49     H49     1.6445   -2.6073    2.2742 H        1 ZINC000441887161    0.0800
50     H50     0.2809   -1.5987    2.8142 H        1 ZINC000441887161    0.0700
51     H51    -0.0188   -3.2339    2.1783 H        1 ZINC000441887161    0.0600
52     H52     0.8200    0.2365    1.3180 H        1 ZINC000441887161    0.1300
@<TRIPOS>BOND
1     1     2     1
2     1     29    1
3     1     30    1
4     1     31    1
5     2     28    ar
6     2     3     ar
7     3     4     ar
8     3     32    1
9     4     5     ar
10    4     33    1
11    5     6     1
12    5     26    ar
13    6     7     1
14    6     8     1
15    6     14    1
16    8     9     1
17    8     34    1
18    8     35    1
19    9     13    1
20    9     10    1
21    10    11    2
22    10    36    1
23    11    12    1
24    11    37    1
25    12    13    2
26    13    38    1
27    14    15    am
28    14    39    1
29    15    16    2
30    15    17    2
31    15    18    1
32    18    25    ar
33    18    19    ar
34    19    20    ar
35    19    40    1
36    20    21    ar
37    20    41    1
38    21    22    1
39    21    23    ar
40    22    42    1
41    22    43    1
42    22    44    1
43    23    24    1
44    23    25    ar
45    24    45    1
46    24    46    1
47    24    47    1
48    25    48    1
49    26    27    1
50    26    28    ar
51    27    49    1
52    27    50    1
53    27    51    1
54    28    52    1
@<TRIPOS>SUBSTRUCTURE
1   ZINC000441887161 1     RESIDUE    1   A     ZIN   1
@<TRIPOS>MOLECULE
ZINC000326056918
39	40	1	0	0
SMALL
USER_CHARGES
@<TRIPOS>ATOM
1      C1     -5.6521   -6.6272   -0.4343 C.3      1 ZINC000326056918    0.0400
2      O2     -4.3291   -6.0416   -0.5567 O.3      1 ZINC000326056918   -0.3500
3      C3     -4.2077   -4.7335   -0.2501 C.2      1 ZINC000326056918    0.5000
4      O4     -5.1818   -4.1002    0.1096 O.2      1 ZINC000326056918   -0.4300
5      C5     -2.9035   -4.0762   -0.3504 C.2      1 ZINC000326056918   -0.1600
6      C6     -2.6614   -2.7524   -0.1077 C.2      1 ZINC000326056918   -0.6200
7      S7     -3.9142   -1.6110    0.3746 S.o2     1 ZINC000326056918    2.6900
8      O8     -4.8502   -2.3467    1.1504 O.2      1 ZINC000326056918   -0.9100
9      O9     -3.2409   -0.4568    0.8580 O.2      1 ZINC000326056918   -0.9400
10     N10    -4.7100   -1.1463   -1.0013 N.am     1 ZINC000326056918   -0.9900
11     C11    -5.8982   -1.8802   -1.4436 C.3      1 ZINC000326056918    0.0900
12     C12    -4.2257   -0.0012   -1.7763 C.3      1 ZINC000326056918    0.1500
13     C13    -5.2832    1.0721   -1.8008 C.ar     1 ZINC000326056918   -0.0900
14     C14    -6.1150    1.1974   -2.8973 C.ar     1 ZINC000326056918   -0.0800
15     C15    -7.0851    2.1820   -2.9208 C.ar     1 ZINC000326056918   -0.1100
16     C16    -7.2240    3.0423   -1.8464 C.ar     1 ZINC000326056918   -0.0200
17     Cl17   -8.4426    4.2783   -1.8758 Cl       1 ZINC000326056918   -0.0600
18     C18    -6.3919    2.9170   -0.7482 C.ar     1 ZINC000326056918   -0.1100
19     C19    -5.4250    1.9284   -0.7231 C.ar     1 ZINC000326056918   -0.0300
20     Cl20   -4.3807    1.7701    0.6547 Cl       1 ZINC000326056918   -0.0100
21     C21    -1.3437   -2.4011   -0.2766 C.2      1 ZINC000326056918   -0.0400
22     C22    -0.8483   -0.9941   -0.0624 C.3      1 ZINC000326056918   -0.1100
23     C23    -0.5323   -3.4000   -0.6448 C.2      1 ZINC000326056918   -0.2600
24     S24    -1.3956   -4.8639   -0.7950 S.3      1 ZINC000326056918    0.3100
25     H25    -5.6099   -7.6810   -0.7099 H        1 ZINC000326056918    0.1100
26     H26    -5.9967   -6.5346    0.5956 H        1 ZINC000326056918    0.0700
27     H27    -6.3430   -6.1058   -1.0969 H        1 ZINC000326056918    0.0700
28     H28    -6.7772   -1.4929   -0.9283 H        1 ZINC000326056918    0.0600
29     H29    -6.0231   -1.7552   -2.5191 H        1 ZINC000326056918    0.0700
30     H30    -5.7785   -2.9387   -1.2123 H        1 ZINC000326056918    0.0900
31     H31    -3.3195    0.3921   -1.3157 H        1 ZINC000326056918    0.1100
32     H32    -4.0067   -0.3189   -2.7957 H        1 ZINC000326056918    0.0900
33     H33    -6.0069    0.5260   -3.7364 H        1 ZINC000326056918    0.1400
34     H34    -7.7344    2.2799   -3.7783 H        1 ZINC000326056918    0.1400
35     H35    -6.5000    3.5884    0.0909 H        1 ZINC000326056918    0.1500
36     H36    -0.6564   -0.8340    0.9986 H        1 ZINC000326056918    0.0900
37     H37     0.0732   -0.8438   -0.6250 H        1 ZINC000326056918    0.0700
38     H38    -1.6032   -0.2868   -0.4059 H        1 ZINC000326056918    0.0900
39     H39     0.5282   -3.2941   -0.8197 H        1 ZINC000326056918    0.1800
@<TRIPOS>BOND
1     1     2     1
2     1     25    1
3     1     26    1
4     1     27    1
5     2     3     1
6     3     4     2
7     3     5     1
8     5     24    1
9     5     6     2
10    6     7     1
11    6     21    1
12    7     8     2
13    7     9     2
14    7     10    am
15    10    11    1
16    10    12    1
17    11    28    1
18    11    29    1
19    11    30    1
20    12    13    1
21    12    31    1
22    12    32    1
23    13    19    ar
24    13    14    ar
25    14    15    ar
26    14    33    1
27    15    16    ar
28    15    34    1
29    16    17    1
30    16    18    ar
31    18    19    ar
32    18    35    1
33    19    20    1
34    21    22    1
35    21    23    2
36    22    36    1
37    22    37    1
38    22    38    1
39    23    24    1
40    23    39    1
@<TRIPOS>SUBSTRUCTURE
1   ZINC000326056918 1     RESIDUE    1   A     ZIN   1
@<TRIPOS>MOLECULE
ZINC000373864439
48	49	1	0	0
SMALL
USER_CHARGES
@<TRIPOS>ATOM
1      C1     -0.0187    1.5258    0.0104 C.3      1 ZINC000373864439   -0.1500
2      C2      0.0021   -0.0041    0.0020 C.3      1 ZINC000373864439   -0.6300
3      S3      0.8794   -0.6050    1.4716 S.o2     1 ZINC000373864439    2.6100
4      O4      2.2626   -0.2896    1.3903 O.2      1 ZINC000373864439   -0.9500
5      O5      0.1322   -0.3254    2.6475 O.2      1 ZINC000373864439   -0.9600
6      N6      0.8281   -2.2548    1.3377 N.am     1 ZINC000373864439   -1.1200
7      C7      1.5235   -2.9221    0.2344 C.3      1 ZINC000373864439    0.1100
8      C8      1.6415   -4.4174    0.5360 C.3      1 ZINC000373864439    0.0500
9      N9      2.3388   -5.0866   -0.5703 N.3      1 ZINC000373864439   -0.5300
10     C10     1.8101   -4.6473   -1.8680 C.3      1 ZINC000373864439    0.0400
11     C11     2.6525   -5.2507   -2.9942 C.3      1 ZINC000373864439   -0.1300
12     C12     2.6096   -6.7780   -2.8950 C.3      1 ZINC000373864439    0.1800
13     F13     1.2933   -7.2207   -3.0647 F        1 ZINC000373864439   -0.2100
14     C14     3.4844   -7.3771   -3.9660 C.ar     1 ZINC000373864439   -0.1500
15     C15     2.9365   -8.2152   -4.9173 C.ar     1 ZINC000373864439   -0.0700
16     C16     3.7388   -8.7656   -5.9001 C.ar     1 ZINC000373864439   -0.1600
17     C17     5.0906   -8.4783   -5.9333 C.ar     1 ZINC000373864439   -0.0700
18     C18     5.6435   -7.6401   -4.9842 C.ar     1 ZINC000373864439   -0.2100
19     C19     4.8399   -7.0825   -4.0006 C.ar     1 ZINC000373864439    0.1400
20     O20     5.3812   -6.2578   -3.0659 O.3      1 ZINC000373864439   -0.3100
21     C21     6.7853   -6.0081   -3.1562 C.3      1 ZINC000373864439    0.0200
22     C22     3.1199   -7.2067   -1.5165 C.3      1 ZINC000373864439   -0.1300
23     C23     2.2639   -6.5467   -0.4332 C.3      1 ZINC000373864439    0.0600
24     H24     1.0039    1.9031    0.0027 H        1 ZINC000373864439    0.0700
25     H25    -0.5459    1.8868   -0.8726 H        1 ZINC000373864439    0.0800
26     H26    -0.5289    1.8773    0.9072 H        1 ZINC000373864439    0.0700
27     H27    -1.0205   -0.3814    0.0098 H        1 ZINC000373864439    0.1300
28     H28     0.5123   -0.3556   -0.8948 H        1 ZINC000373864439    0.1300
29     H29     0.3376   -2.7793    1.9898 H        1 ZINC000373864439    0.4200
30     H30     0.9606   -2.7808   -0.6883 H        1 ZINC000373864439    0.0700
31     H31     2.5198   -2.4946    0.1213 H        1 ZINC000373864439    0.0900
32     H32     2.2044   -4.5587    1.4587 H        1 ZINC000373864439    0.0900
33     H33     0.6452   -4.8450    0.6491 H        1 ZINC000373864439    0.0400
34     H34     0.7767   -4.9786   -1.9701 H        1 ZINC000373864439    0.0400
35     H35     1.8502   -3.5597   -1.9272 H        1 ZINC000373864439    0.0900
36     H36     2.2504   -4.9371   -3.9575 H        1 ZINC000373864439    0.0800
37     H37     3.6833   -4.9088   -2.9008 H        1 ZINC000373864439    0.1000
38     H38     1.8807   -8.4413   -4.8935 H        1 ZINC000373864439    0.1300
39     H39     3.3086   -9.4213   -6.6426 H        1 ZINC000373864439    0.1300
40     H40     5.7152   -8.9096   -6.7016 H        1 ZINC000373864439    0.1300
41     H41     6.6997   -7.4162   -5.0104 H        1 ZINC000373864439    0.1300
42     H42     7.0873   -5.3362   -2.3528 H        1 ZINC000373864439    0.1000
43     H43     7.3282   -6.9491   -3.0661 H        1 ZINC000373864439    0.0600
44     H44     7.0116   -5.5488   -4.1184 H        1 ZINC000373864439    0.0600
45     H45     3.0516   -8.2907   -1.4241 H        1 ZINC000373864439    0.0800
46     H46     4.1580   -6.8956   -1.3999 H        1 ZINC000373864439    0.1000
47     H47     2.6336   -6.8386    0.5498 H        1 ZINC000373864439    0.0800
48     H48     1.2284   -6.8691   -0.5419 H        1 ZINC000373864439    0.0400
@<TRIPOS>BOND
1     1     2     1
2     1     24    1
3     1     25    1
4     1     26    1
5     2     3     1
6     2     27    1
7     2     28    1
8     3     4     2
9     3     5     2
10    3     6     am
11    6     7     1
12    6     29    1
13    7     8     1
14    7     30    1
15    7     31    1
16    8     9     1
17    8     32    1
18    8     33    1
19    9     23    1
20    9     10    1
21    10    11    1
22    10    34    1
23    10    35    1
24    11    12    1
25    11    36    1
26    11    37    1
27    12    13    1
28    12    14    1
29    12    22    1
30    14    19    ar
31    14    15    ar
32    15    16    ar
33    15    38    1
34    16    17    ar
35    16    39    1
36    17    18    ar
37    17    40    1
38    18    19    ar
39    18    41    1
40    19    20    1
41    20    21    1
42    21    42    1
43    21    43    1
44    21    44    1
45    22    23    1
46    22    45    1
47    22    46    1
48    23    47    1
49    23    48    1
@<TRIPOS>SUBSTRUCTURE
1   ZINC000373864439 1     RESIDUE    1   A     ZIN   1
@<TRIPOS>MOLECULE
ZINC001492779707
57	59	1	0	0
SMALL
USER_CHARGES
@<TRIPOS>ATOM
1      C1      1.5192    0.6566   -1.2715 C.3      1 ZINC001492779707   -0.0700
2      C2      0.7519   -0.5461   -0.7861 C.2      1 ZINC001492779707    0.1800
3      N3     -0.4984   -0.8162   -1.0344 N.2      1 ZINC001492779707   -0.2900
4      N4     -0.8321   -1.9198   -0.4662 N.2      1 ZINC001492779707   -0.3100
5      C5      0.1959   -2.4170    0.1802 C.2      1 ZINC001492779707    0.3400
6      N6      0.2183   -3.5940    0.9115 N.3      1 ZINC001492779707   -0.4600
7      C7     -0.6711   -3.5064    2.0774 C.3      1 ZINC001492779707    0.0300
8      C8     -0.1314   -4.7446    0.0679 C.3      1 ZINC001492779707    0.1100
9      C9      0.1392   -6.0210    0.8220 C.ar     1 ZINC001492779707   -0.0400
10     C10     1.3807   -6.6233    0.7373 C.ar     1 ZINC001492779707   -0.1300
11     C11     1.6322   -7.7946    1.4281 C.ar     1 ZINC001492779707   -0.0800
12     C12     0.6430   -8.3657    2.2046 C.ar     1 ZINC001492779707   -0.2100
13     C13    -0.6039   -7.7632    2.2912 C.ar     1 ZINC001492779707    0.1300
14     O14    -1.5788   -8.3230    3.0550 O.3      1 ZINC001492779707   -0.3100
15     C15    -1.2178   -9.4670    3.8316 C.3      1 ZINC001492779707    0.0800
16     C16    -2.1528   -9.5804    5.0374 C.3      1 ZINC001492779707   -0.1500
17     C17    -1.3396  -10.7264    2.9715 C.3      1 ZINC001492779707   -0.1800
18     C18    -0.8519   -6.5854    1.6019 C.ar     1 ZINC001492779707   -0.1400
19     N19     1.2402   -1.5593   -0.0084 N.pl3    1 ZINC001492779707   -0.4600
20     C20     2.6000   -1.6914    0.5206 C.3      1 ZINC001492779707    0.1200
21     C21     3.4908   -2.3654   -0.5249 C.3      1 ZINC001492779707   -0.1200
22     C22     4.9108   -2.5034    0.0277 C.3      1 ZINC001492779707    0.0600
23     H23     4.8814   -3.0335    0.9796 H        1 ZINC001492779707    0.0800
24     C24     5.7734   -3.2853   -0.9672 C.3      1 ZINC001492779707    0.0300
25     O25     7.1242   -3.3135   -0.4964 O.3      1 ZINC001492779707   -0.3800
26     C26     7.6908   -2.0139   -0.3041 C.3      1 ZINC001492779707    0.0200
27     C27     6.8283   -1.2320    0.6908 C.3      1 ZINC001492779707    0.0300
28     O28     5.4769   -1.2037    0.2214 O.3      1 ZINC001492779707   -0.3800
29     H29     1.9789    0.4303   -2.2336 H        1 ZINC001492779707    0.0900
30     H30     0.8388    1.5008   -1.3835 H        1 ZINC001492779707    0.1000
31     H31     2.2950    0.9087   -0.5485 H        1 ZINC001492779707    0.0800
32     H32    -1.7052   -3.4324    1.7408 H        1 ZINC001492779707    0.0500
33     H33    -0.5523   -4.3981    2.6929 H        1 ZINC001492779707    0.0900
34     H34    -0.4158   -2.6236    2.6636 H        1 ZINC001492779707    0.0700
35     H35    -1.1881   -4.6948   -0.1947 H        1 ZINC001492779707    0.0700
36     H36     0.4701   -4.7250   -0.8409 H        1 ZINC001492779707    0.0900
37     H37     2.1554   -6.1784    0.1304 H        1 ZINC001492779707    0.1200
38     H38     2.6028   -8.2633    1.3600 H        1 ZINC001492779707    0.1300
39     H39     0.8397   -9.2807    2.7436 H        1 ZINC001492779707    0.1300
40     H40    -0.1897   -9.3614    4.1778 H        1 ZINC001492779707    0.0700
41     H41    -3.1810   -9.6860    4.6912 H        1 ZINC001492779707    0.0700
42     H42    -1.8775  -10.4530    5.6298 H        1 ZINC001492779707    0.0800
43     H43    -2.0661   -8.6831    5.6501 H        1 ZINC001492779707    0.0700
44     H44    -0.6735  -10.6456    2.1125 H        1 ZINC001492779707    0.0600
45     H45    -1.0642  -11.5990    3.5640 H        1 ZINC001492779707    0.0700
46     H46    -2.3677  -10.8320    2.6253 H        1 ZINC001492779707    0.0700
47     H47    -1.8216   -6.1145    1.6677 H        1 ZINC001492779707    0.1300
48     H48     2.9968   -0.7033    0.7536 H        1 ZINC001492779707    0.1000
49     H49     2.5801   -2.2977    1.4262 H        1 ZINC001492779707    0.1000
50     H50     3.0939   -3.3535   -0.7578 H        1 ZINC001492779707    0.0900
51     H51     3.5106   -1.7591   -1.4305 H        1 ZINC001492779707    0.0800
52     H52     5.3964   -4.3044   -1.0538 H        1 ZINC001492779707    0.1100
53     H53     5.7374   -2.7985   -1.9418 H        1 ZINC001492779707    0.0600
54     H54     8.7025   -2.1123    0.0896 H        1 ZINC001492779707    0.1100
55     H55     7.7193   -1.4844   -1.2563 H        1 ZINC001492779707    0.0600
56     H56     6.8642   -1.7188    1.6654 H        1 ZINC001492779707    0.0600
57     H57     7.2052   -0.2129    0.7774 H        1 ZINC001492779707    0.1100
@<TRIPOS>BOND
1     1     2     1
2     1     29    1
3     1     30    1
4     1     31    1
5     2     19    1
6     2     3     2
7     3     4     1
8     4     5     2
9     5     6     1
10    5     19    1
11    6     7     1
12    6     8     1
13    7     32    1
14    7     33    1
15    7     34    1
16    8     9     1
17    8     35    1
18    8     36    1
19    9     18    ar
20    9     10    ar
21    10    11    ar
22    10    37    1
23    11    12    ar
24    11    38    1
25    12    13    ar
26    12    39    1
27    13    14    1
28    13    18    ar
29    14    15    1
30    15    16    1
31    15    17    1
32    15    40    1
33    16    41    1
34    16    42    1
35    16    43    1
36    17    44    1
37    17    45    1
38    17    46    1
39    18    47    1
40    19    20    1
41    20    21    1
42    20    48    1
43    20    49    1
44    21    22    1
45    21    50    1
46    21    51    1
47    22    23    1
48    22    28    1
49    22    24    1
50    24    25    1
51    24    52    1
52    24    53    1
53    25    26    1
54    26    27    1
55    26    54    1
56    26    55    1
57    27    28    1
58    27    56    1
59    27    57    1
@<TRIPOS>SUBSTRUCTURE
1   ZINC001492779707 1     RESIDUE    1   A     ZIN   1
@<TRIPOS>MOLECULE
ZINC001342629575
61	64	1	0	0
SMALL
USER_CHARGES
@<TRIPOS>ATOM
1      C1      0.2432    0.2127    2.3551 C.2      1 ZINC001342629575   -0.1800
2      C2      0.1188   -0.9235    1.7151 C.2      1 ZINC001342629575   -0.1600
3      C3     -1.2269   -1.3462    1.1847 C.3      1 ZINC001342629575   -0.0800
4      C4     -1.1168   -1.6343   -0.3139 C.3      1 ZINC001342629575    0.0500
5      H5     -0.7035   -0.7630   -0.8220 H        1 ZINC001342629575    0.0900
6      C6     -0.2120   -2.8194   -0.5325 C.2      1 ZINC001342629575    0.2000
7      N7     -0.3961   -4.0260   -0.0765 N.2      1 ZINC001342629575   -0.2700
8      N8      0.5672   -4.7903   -0.4506 N.2      1 ZINC001342629575   -0.3000
9      C9      1.4246   -4.1066   -1.1712 C.2      1 ZINC001342629575    0.3400
10     N10     2.5879   -4.5917   -1.7473 N.3      1 ZINC001342629575   -0.4300
11     C11     2.2923   -5.3333   -3.0002 C.3      1 ZINC001342629575    0.0400
12     C12     3.5257   -6.2358   -3.2182 C.3      1 ZINC001342629575   -0.1200
13     C13     4.1465   -6.4116   -1.8170 C.3      1 ZINC001342629575   -0.1200
14     C14     3.2359   -5.6006   -0.8702 C.3      1 ZINC001342629575    0.0700
15     H15     2.4855   -6.2484   -0.4171 H        1 ZINC001342629575    0.0900
16     C16     4.0697   -4.9129    0.2127 C.3      1 ZINC001342629575    0.1000
17     H17     3.4122   -4.4105    0.9222 H        1 ZINC001342629575    0.0700
18     C18     5.0243   -3.8865   -0.4341 C.3      1 ZINC001342629575   -0.1400
19     C19     6.3185   -4.0652    0.4055 C.3      1 ZINC001342629575   -0.1600
20     C20     6.2666   -5.5844    0.7062 C.3      1 ZINC001342629575    0.0500
21     O21     4.8724   -5.8822    0.8967 O.3      1 ZINC001342629575   -0.3700
22     N22     0.9514   -2.8293   -1.2510 N.pl3    1 ZINC001342629575   -0.4600
23     C23     1.5671   -1.7002   -1.9526 C.3      1 ZINC001342629575    0.1100
24     C24     1.0522   -1.6525   -3.3926 C.3      1 ZINC001342629575    0.0500
25     O25     1.6528   -0.5512   -4.0770 O.3      1 ZINC001342629575   -0.3800
26     C26     1.2372   -0.4159   -5.4375 C.3      1 ZINC001342629575    0.0300
27     C27    -2.4846   -1.9375   -0.8690 C.ar     1 ZINC001342629575   -0.0900
28     C28    -3.2117   -3.0030   -0.3719 C.ar     1 ZINC001342629575   -0.0900
29     C29    -4.4664   -3.2811   -0.8810 C.ar     1 ZINC001342629575   -0.1200
30     C30    -4.9943   -2.4935   -1.8870 C.ar     1 ZINC001342629575   -0.1200
31     C31    -4.2676   -1.4275   -2.3835 C.ar     1 ZINC001342629575   -0.1200
32     C32    -3.0147   -1.1468   -1.8713 C.ar     1 ZINC001342629575   -0.1100
33     H33     1.2076    0.5156    2.7353 H        1 ZINC001342629575    0.1000
34     H34    -0.6178    0.8487    2.4987 H        1 ZINC001342629575    0.1000
35     H35     0.9807   -1.5574    1.5677 H        1 ZINC001342629575    0.1000
36     H36    -1.5560   -2.2460    1.7044 H        1 ZINC001342629575    0.0900
37     H37    -1.9495   -0.5469    1.3489 H        1 ZINC001342629575    0.0800
38     H38     1.3943   -5.9393   -2.8804 H        1 ZINC001342629575    0.0600
39     H39     2.1761   -4.6405   -3.8336 H        1 ZINC001342629575    0.0800
40     H40     3.2216   -7.2017   -3.6214 H        1 ZINC001342629575    0.0800
41     H41     4.2356   -5.7514   -3.8886 H        1 ZINC001342629575    0.0800
42     H42     4.1470   -7.4638   -1.5324 H        1 ZINC001342629575    0.0800
43     H43     5.1610   -6.0135   -1.7997 H        1 ZINC001342629575    0.0800
44     H44     5.2044   -4.1303   -1.4811 H        1 ZINC001342629575    0.0900
45     H45     4.6325   -2.8744   -0.3322 H        1 ZINC001342629575    0.0800
46     H46     7.2035   -3.8102   -0.1775 H        1 ZINC001342629575    0.0800
47     H47     6.2743   -3.4811    1.3248 H        1 ZINC001342629575    0.0800
48     H48     6.6634   -6.1506   -0.1365 H        1 ZINC001342629575    0.0600
49     H49     6.8281   -5.8101    1.6127 H        1 ZINC001342629575    0.0900
50     H50     1.3090   -0.7716   -1.4435 H        1 ZINC001342629575    0.1000
51     H51     2.6502   -1.8227   -1.9579 H        1 ZINC001342629575    0.1100
52     H52     1.3104   -2.5811   -3.9017 H        1 ZINC001342629575    0.0600
53     H53    -0.0309   -1.5300   -3.3873 H        1 ZINC001342629575    0.0600
54     H54     1.7373    0.4422   -5.8866 H        1 ZINC001342629575    0.0900
55     H55     1.4991   -1.3188   -5.9890 H        1 ZINC001342629575    0.0400
56     H56     0.1579   -0.2677   -5.4747 H        1 ZINC001342629575    0.0400
57     H57    -2.7993   -3.6183    0.4140 H        1 ZINC001342629575    0.1300
58     H58    -5.0341   -4.1139   -0.4931 H        1 ZINC001342629575    0.1200
59     H59    -5.9742   -2.7112   -2.2853 H        1 ZINC001342629575    0.1200
60     H60    -4.6799   -0.8124   -3.1696 H        1 ZINC001342629575    0.1200
61     H61    -2.4470   -0.3139   -2.2592 H        1 ZINC001342629575    0.1200
@<TRIPOS>BOND
1     1     2     2
2     1     33    1
3     1     34    1
4     2     3     1
5     2     35    1
6     3     4     1
7     3     36    1
8     3     37    1
9     4     5     1
10    4     6     1
11    4     27    1
12    6     22    1
13    6     7     2
14    7     8     1
15    8     9     2
16    9     10    1
17    9     22    1
18    10    14    1
19    10    11    1
20    11    12    1
21    11    38    1
22    11    39    1
23    12    13    1
24    12    40    1
25    12    41    1
26    13    14    1
27    13    42    1
28    13    43    1
29    14    15    1
30    14    16    1
31    16    17    1
32    16    21    1
33    16    18    1
34    18    19    1
35    18    44    1
36    18    45    1
37    19    20    1
38    19    46    1
39    19    47    1
40    20    21    1
41    20    48    1
42    20    49    1
43    22    23    1
44    23    24    1
45    23    50    1
46    23    51    1
47    24    25    1
48    24    52    1
49    24    53    1
50    25    26    1
51    26    54    1
52    26    55    1
53    26    56    1
54    27    32    ar
55    27    28    ar
56    28    29    ar
57    28    57    1
58    29    30    ar
59    29    58    1
60    30    31    ar
61    30    59    1
62    31    32    ar
63    31    60    1
64    32    61    1
@<TRIPOS>SUBSTRUCTURE
1   ZINC001342629575 1     RESIDUE    1   A     ZIN   1
@<TRIPOS>MOLECULE
ZINC000512699033
61	64	1	0	0
SMALL
USER_CHARGES
@<TRIPOS>ATOM
1      O1      0.0107   -0.0047    0.0413 O.2      1 ZINC000512699033   -0.5100
2      C2     -0.0110    1.2078    0.0216 C.2      1 ZINC000512699033    0.5200
3      C3      1.2803    1.9841   -0.0073 C.3      1 ZINC000512699033   -0.1500
4      C4      2.4595    1.0176    0.1202 C.3      1 ZINC000512699033    0.1300
5      N5      3.7148    1.7723    0.0922 N.am     1 ZINC000512699033   -0.7300
6      C6      4.8927    1.1247    0.1903 C.2      1 ZINC000512699033    0.5200
7      O7      4.9135   -0.0827    0.3019 O.2      1 ZINC000512699033   -0.5300
8      C8      6.1841    1.9011    0.1615 C.3      1 ZINC000512699033   -0.1100
9      C9      6.2091    2.8926    1.3264 C.3      1 ZINC000512699033   -0.1100
10     C10     7.5202    3.6808    1.2971 C.3      1 ZINC000512699033   -0.1200
11     C11     8.6993    2.7143    1.4246 C.3      1 ZINC000512699033   -0.1200
12     C12     8.6742    1.7227    0.2596 C.3      1 ZINC000512699033   -0.1200
13     C13     7.3632    0.9345    0.2889 C.3      1 ZINC000512699033   -0.1000
14     N14    -1.1900    1.8608    0.0200 N.am     1 ZINC000512699033   -0.6600
15     C15    -2.3870    1.1438    0.1259 C.ar     1 ZINC000512699033    0.1700
16     C16    -2.4437   -0.1805   -0.2876 C.ar     1 ZINC000512699033   -0.1400
17     C17    -3.6267   -0.8857   -0.1812 C.ar     1 ZINC000512699033   -0.1000
18     C18    -4.7537   -0.2740    0.3359 C.ar     1 ZINC000512699033   -0.1400
19     C19    -4.7005    1.0449    0.7486 C.ar     1 ZINC000512699033   -0.0900
20     C20    -3.5194    1.7536    0.6502 C.ar     1 ZINC000512699033   -0.1200
21     C21    -3.4623    3.1907    1.1002 C.3      1 ZINC000512699033    0.0900
22     N22    -3.4399    4.0714   -0.0754 N.3      1 ZINC000512699033   -0.4700
23     C23    -4.7774    4.1538   -0.7015 C.3      1 ZINC000512699033    0.0500
24     C24    -4.7862    5.5819   -1.2935 C.3      1 ZINC000512699033   -0.0900
25     C25    -3.7955    6.3174   -0.4132 C.ar     1 ZINC000512699033   -0.1400
26     C26    -3.5614    7.6632   -0.2261 C.ar     1 ZINC000512699033   -0.0800
27     C27    -2.5818    8.0804    0.6573 C.ar     1 ZINC000512699033   -0.1400
28     C28    -1.8378    7.1452    1.3528 C.ar     1 ZINC000512699033   -0.0900
29     C29    -2.0666    5.7975    1.1675 C.ar     1 ZINC000512699033   -0.1400
30     C30    -3.0495    5.3692    0.2772 C.ar     1 ZINC000512699033    0.0900
31     H31     1.3564    2.5279   -0.9489 H        1 ZINC000512699033    0.1100
32     H32     1.2982    2.6905    0.8227 H        1 ZINC000512699033    0.1000
33     H33     2.3834    0.4738    1.0618 H        1 ZINC000512699033    0.0800
34     H34     2.4416    0.3112   -0.7097 H        1 ZINC000512699033    0.0800
35     H35     3.6982    2.7380    0.0029 H        1 ZINC000512699033    0.4000
36     H36     6.2601    2.4448   -0.7802 H        1 ZINC000512699033    0.1000
37     H37     5.3691    3.5812    1.2356 H        1 ZINC000512699033    0.0700
38     H38     6.1331    2.3489    2.2680 H        1 ZINC000512699033    0.0700
39     H39     7.5962    4.2246    0.3555 H        1 ZINC000512699033    0.0600
40     H40     7.5381    4.3872    2.1270 H        1 ZINC000512699033    0.0700
41     H41     9.6333    3.2758    1.4037 H        1 ZINC000512699033    0.0600
42     H42     8.6232    2.1705    2.3662 H        1 ZINC000512699033    0.0600
43     H43     8.7503    2.2664   -0.6820 H        1 ZINC000512699033    0.0600
44     H44     9.5143    1.0341    0.3505 H        1 ZINC000512699033    0.0700
45     H45     7.2871    0.3908    1.2306 H        1 ZINC000512699033    0.0700
46     H46     7.3453    0.2281   -0.5410 H        1 ZINC000512699033    0.0700
47     H47    -1.2088    2.8277   -0.0547 H        1 ZINC000512699033    0.4200
48     H48    -1.5638   -0.6586   -0.6922 H        1 ZINC000512699033    0.1500
49     H49    -3.6714   -1.9157   -0.5027 H        1 ZINC000512699033    0.1300
50     H50    -5.6776   -0.8273    0.4173 H        1 ZINC000512699033    0.1200
51     H51    -5.5825    1.5199    1.1521 H        1 ZINC000512699033    0.1200
52     H52    -4.3393    3.4166    1.7068 H        1 ZINC000512699033    0.0600
53     H53    -2.5606    3.3508    1.6913 H        1 ZINC000512699033    0.0900
54     H54    -4.8821    3.4079   -1.4894 H        1 ZINC000512699033    0.1000
55     H55    -5.5621    4.0405    0.0465 H        1 ZINC000512699033    0.0600
56     H56    -4.4486    5.5722   -2.3299 H        1 ZINC000512699033    0.0900
57     H57    -5.7781    6.0268   -1.2136 H        1 ZINC000512699033    0.0800
58     H58    -4.1432    8.3926   -0.7700 H        1 ZINC000512699033    0.1200
59     H59    -2.3982    9.1346    0.8030 H        1 ZINC000512699033    0.1300
60     H60    -1.0743    7.4712    2.0435 H        1 ZINC000512699033    0.1300
61     H61    -1.4818    5.0720    1.7136 H        1 ZINC000512699033    0.1200
@<TRIPOS>BOND
1     1     2     2
2     2     3     1
3     2     14    am
4     3     4     1
5     3     31    1
6     3     32    1
7     4     5     1
8     4     33    1
9     4     34    1
10    5     6     am
11    5     35    1
12    6     7     2
13    6     8     1
14    8     13    1
15    8     9     1
16    8     36    1
17    9     10    1
18    9     37    1
19    9     38    1
20    10    11    1
21    10    39    1
22    10    40    1
23    11    12    1
24    11    41    1
25    11    42    1
26    12    13    1
27    12    43    1
28    12    44    1
29    13    45    1
30    13    46    1
31    14    15    1
32    14    47    1
33    15    20    ar
34    15    16    ar
35    16    17    ar
36    16    48    1
37    17    18    ar
38    17    49    1
39    18    19    ar
40    18    50    1
41    19    20    ar
42    19    51    1
43    20    21    1
44    21    22    1
45    21    52    1
46    21    53    1
47    22    30    1
48    22    23    1
49    23    24    1
50    23    54    1
51    23    55    1
52    24    25    1
53    24    56    1
54    24    57    1
55    25    30    ar
56    25    26    ar
57    26    27    ar
58    26    58    1
59    27    28    ar
60    27    59    1
61    28    29    ar
62    28    60    1
63    29    30    ar
64    29    61    1
@<TRIPOS>SUBSTRUCTURE
1   ZINC000512699033 1     RESIDUE    1   A     ZIN   1
@<TRIPOS>MOLECULE
ZINC000753658424
48	49	1	0	0
SMALL
USER_CHARGES
@<TRIPOS>ATOM
1      C1      0.3534    0.3984   -1.4924 C.3      1 ZINC000753658424   -0.2000
2      C2     -0.1249   -0.0059   -0.1217 C.2      1 ZINC000753658424    0.4400
3      O3      0.5498    0.2454    0.8548 O.2      1 ZINC000753658424   -0.4500
4      C4     -1.4056   -0.7029    0.0319 C.2      1 ZINC000753658424   -0.2500
5      C5     -2.6608   -0.1179    0.0943 C.2      1 ZINC000753658424    0.1000
6      C6     -2.9506    1.3589    0.0155 C.3      1 ZINC000753658424   -0.1000
7      N7     -3.5732   -1.0904    0.2362 N.pl3    1 ZINC000753658424   -0.5300
8      C8     -2.9358   -2.3121    0.2684 C.2      1 ZINC000753658424   -0.0600
9      C9     -3.5901   -3.6189    0.4122 C.2      1 ZINC000753658424    0.5900
10     O10    -2.9337   -4.6401    0.3309 O.2      1 ZINC000753658424   -0.5200
11     N11    -4.9177   -3.6870    0.6342 N.am     1 ZINC000753658424   -0.7300
12     C12    -5.5704   -4.9907    0.7778 C.3      1 ZINC000753658424    0.0900
13     C13    -7.0673   -4.7876    1.0205 C.3      1 ZINC000753658424    0.1900
14     H14    -7.5033   -4.2540    0.1760 H        1 ZINC000753658424    0.1300
15     O15    -7.2571   -4.0258    2.2146 O.3      1 ZINC000753658424   -0.5500
16     C16    -7.7388   -6.1286    1.1682 C.2      1 ZINC000753658424   -0.0600
17     C17    -8.3461   -6.8167    0.1848 C.2      1 ZINC000753658424   -0.1800
18     C18    -8.8339   -8.0117    0.7620 C.2      1 ZINC000753658424   -0.2100
19     C19    -8.4954   -7.9823    2.0635 C.2      1 ZINC000753658424    0.0000
20     C20    -8.8067   -9.0509    3.0795 C.3      1 ZINC000753658424   -0.0800
21     O21    -7.8272   -6.8421    2.3026 O.3      1 ZINC000753658424   -0.1700
22     C22    -1.5960   -2.1017    0.1383 C.2      1 ZINC000753658424   -0.0100
23     C23    -0.5202   -3.1568    0.1206 C.3      1 ZINC000753658424   -0.0500
24     C24     0.3283   -2.9989   -1.1428 C.3      1 ZINC000753658424   -0.1500
25     C25     0.3693   -2.9991    1.3554 C.3      1 ZINC000753658424   -0.1500
26     H26     1.2770    0.9700   -1.4010 H        1 ZINC000753658424    0.0800
27     H27     0.5361   -0.4938   -2.0912 H        1 ZINC000753658424    0.1000
28     H28    -0.4069    1.0114   -1.9763 H        1 ZINC000753658424    0.0900
29     H29    -3.1896    1.6279   -1.0133 H        1 ZINC000753658424    0.0900
30     H30    -3.7969    1.5979    0.6596 H        1 ZINC000753658424    0.0800
31     H31    -2.0749    1.9190    0.3435 H        1 ZINC000753658424    0.0900
32     H32    -4.5313   -0.9553    0.3053 H        1 ZINC000753658424    0.4200
33     H33    -5.4410   -2.8728    0.6990 H        1 ZINC000753658424    0.4000
34     H34    -5.4256   -5.5717   -0.1330 H        1 ZINC000753658424    0.0900
35     H35    -5.1345   -5.5243    1.6223 H        1 ZINC000753658424    0.0800
36     H36    -6.8931   -4.4413    3.0083 H        1 ZINC000753658424    0.3900
37     H37    -8.4431   -6.5142   -0.8474 H        1 ZINC000753658424    0.1500
38     H38    -9.3747   -8.7972    0.2552 H        1 ZINC000753658424    0.1500
39     H39    -7.9938   -9.7767    3.1041 H        1 ZINC000753658424    0.0800
40     H40    -8.9171   -8.5956    4.0636 H        1 ZINC000753658424    0.0800
41     H41    -9.7343   -9.5535    2.8055 H        1 ZINC000753658424    0.0900
42     H42    -0.9803   -4.1449    0.1280 H        1 ZINC000753658424    0.1100
43     H43     0.8825   -2.0616   -1.0933 H        1 ZINC000753658424    0.0500
44     H44     1.0280   -3.8313   -1.2169 H        1 ZINC000753658424    0.0600
45     H45    -0.3213   -2.9912   -2.0181 H        1 ZINC000753658424    0.0600
46     H46    -0.2184   -3.1901    2.2533 H        1 ZINC000753658424    0.0500
47     H47     1.1936   -3.7103    1.3026 H        1 ZINC000753658424    0.0600
48     H48     0.7663   -1.9846    1.3900 H        1 ZINC000753658424    0.0600
@<TRIPOS>BOND
1     1     2     1
2     1     26    1
3     1     27    1
4     1     28    1
5     2     3     2
6     2     4     1
7     4     22    1
8     4     5     2
9     5     6     1
10    5     7     1
11    6     29    1
12    6     30    1
13    6     31    1
14    7     8     1
15    7     32    1
16    8     9     1
17    8     22    2
18    9     10    2
19    9     11    am
20    11    12    1
21    11    33    1
22    12    13    1
23    12    34    1
24    12    35    1
25    13    14    1
26    13    15    1
27    13    16    1
28    15    36    1
29    16    21    1
30    16    17    2
31    17    18    1
32    17    37    1
33    18    19    2
34    18    38    1
35    19    20    1
36    19    21    1
37    20    39    1
38    20    40    1
39    20    41    1
40    22    23    1
41    23    24    1
42    23    25    1
43    23    42    1
44    24    43    1
45    24    44    1
46    24    45    1
47    25    46    1
48    25    47    1
49    25    48    1
@<TRIPOS>SUBSTRUCTURE
1   ZINC000753658424 1     RESIDUE    1   A     ZIN   1
@<TRIPOS>MOLECULE
ZINC000469391664
53	56	1	0	0
SMALL
USER_CHARGES
@<TRIPOS>ATOM
1      C1      1.5528   -1.7322   -2.5452 C.3      1 ZINC000469391664   -0.1500
2      C2      0.7964   -1.5731   -1.2248 C.3      1 ZINC000469391664   -0.1000
3      H3      0.6699   -0.5132   -1.0042 H        1 ZINC000469391664    0.0800
4      C4      1.5918   -2.2370   -0.0984 C.3      1 ZINC000469391664   -0.1300
5      C5      0.8486   -2.0458    1.2274 C.3      1 ZINC000469391664    0.1100
6      N6     -0.5229   -2.5513    1.0780 N.am     1 ZINC000469391664   -0.6100
7      C7     -1.0171   -3.4613    1.9406 C.2      1 ZINC000469391664    0.5600
8      O8     -0.2958   -3.9489    2.7895 O.2      1 ZINC000469391664   -0.5000
9      C9     -2.4330   -3.8657    1.8550 C.ar     1 ZINC000469391664   -0.1100
10     C10    -3.4423   -2.9009    1.8852 C.ar     1 ZINC000469391664   -0.0900
11     C11    -4.7635   -3.2852    1.8043 C.ar     1 ZINC000469391664   -0.1000
12     C12    -5.0969   -4.6253    1.6936 C.ar     1 ZINC000469391664   -0.0900
13     C13    -4.1105   -5.5906    1.6630 C.ar     1 ZINC000469391664   -0.1000
14     C14    -2.7739   -5.2219    1.7370 C.ar     1 ZINC000469391664    0.1500
15     N15    -1.7777   -6.1933    1.7063 N.am     1 ZINC000469391664   -0.5800
16     C16    -1.2074   -6.6175    0.4253 C.3      1 ZINC000469391664    0.0900
17     C17    -1.3377   -6.7438    2.8552 C.2      1 ZINC000469391664    0.6100
18     O18    -0.5262   -7.6503    2.8239 O.2      1 ZINC000469391664   -0.5200
19     C19    -1.8363   -6.2508    4.1418 C.2      1 ZINC000469391664   -0.2600
20     C20    -1.3872   -6.6469    5.3706 C.2      1 ZINC000469391664   -0.0500
21     C21    -2.0312   -6.0220    6.4119 C.2      1 ZINC000469391664   -0.1500
22     C22    -2.9750   -5.1445    6.0512 C.2      1 ZINC000469391664   -0.2600
23     S23    -3.1028   -5.0495    4.3525 S.3      1 ZINC000469391664    0.2300
24     C24    -1.3454   -2.0457   -0.0294 C.3      1 ZINC000469391664    0.1000
25     C25    -0.5775   -2.2372   -1.3411 C.3      1 ZINC000469391664    0.1300
26     H26    -0.4518   -3.3021   -1.5369 H        1 ZINC000469391664    0.1000
27     N27    -1.3263   -1.6229   -2.4403 N.pl3    1 ZINC000469391664   -0.4500
28     C28    -1.8119   -2.2619   -3.5491 C.2      1 ZINC000469391664   -0.0500
29     C29    -2.4323   -1.3288   -4.2961 C.2      1 ZINC000469391664   -0.0300
30     N30    -2.3283   -0.1522   -3.6608 N.2      1 ZINC000469391664   -0.4900
31     C31    -1.6715   -0.3216   -2.5459 C.2      1 ZINC000469391664    0.1800
32     H32     0.9867   -1.2589   -3.3475 H        1 ZINC000469391664    0.0600
33     H33     2.5312   -1.2588   -2.4627 H        1 ZINC000469391664    0.0600
34     H34     1.6794   -2.7920   -2.7660 H        1 ZINC000469391664    0.0600
35     H35     1.6971   -3.3018   -0.3061 H        1 ZINC000469391664    0.0700
36     H36     2.5788   -1.7795   -0.0314 H        1 ZINC000469391664    0.0900
37     H37     1.3585   -2.6000    2.0154 H        1 ZINC000469391664    0.1000
38     H38     0.8217   -0.9862    1.4818 H        1 ZINC000469391664    0.0800
39     H39    -3.1878   -1.8550    1.9721 H        1 ZINC000469391664    0.1400
40     H40    -5.5427   -2.5379    1.8277 H        1 ZINC000469391664    0.1400
41     H41    -6.1350   -4.9166    1.6312 H        1 ZINC000469391664    0.1400
42     H42    -4.3785   -6.6332    1.5769 H        1 ZINC000469391664    0.1400
43     H43    -0.2977   -6.0507    0.2271 H        1 ZINC000469391664    0.0600
44     H44    -0.9712   -7.6808    0.4670 H        1 ZINC000469391664    0.0900
45     H45    -1.9290   -6.4366   -0.3713 H        1 ZINC000469391664    0.0700
46     H46    -0.6047   -7.3782    5.5095 H        1 ZINC000469391664    0.1500
47     H47    -1.7931   -6.2247    7.4457 H        1 ZINC000469391664    0.1400
48     H48    -3.5731   -4.5700    6.7431 H        1 ZINC000469391664    0.1600
49     H49    -2.2831   -2.5998   -0.0708 H        1 ZINC000469391664    0.1000
50     H50    -1.5512   -0.9861    0.1224 H        1 ZINC000469391664    0.0800
51     H51    -1.7156   -3.3124   -3.7806 H        1 ZINC000469391664    0.1700
52     H52    -2.9268   -1.4983   -5.2412 H        1 ZINC000469391664    0.1700
53     H53    -1.4369    0.4520   -1.8297 H        1 ZINC000469391664    0.2000
@<TRIPOS>BOND
1     1     2     1
2     1     32    1
3     1     33    1
4     1     34    1
5     2     3     1
6     2     25    1
7     2     4     1
8     4     5     1
9     4     35    1
10    4     36    1
11    5     6     1
12    5     37    1
13    5     38    1
14    6     7     am
15    6     24    1
16    7     8     2
17    7     9     1
18    9     14    ar
19    9     10    ar
20    10    11    ar
21    10    39    1
22    11    12    ar
23    11    40    1
24    12    13    ar
25    12    41    1
26    13    14    ar
27    13    42    1
28    14    15    1
29    15    16    1
30    15    17    am
31    16    43    1
32    16    44    1
33    16    45    1
34    17    18    2
35    17    19    1
36    19    23    1
37    19    20    2
38    20    21    1
39    20    46    1
40    21    22    2
41    21    47    1
42    22    23    1
43    22    48    1
44    24    25    1
45    24    49    1
46    24    50    1
47    25    26    1
48    25    27    1
49    27    31    1
50    27    28    1
51    28    29    2
52    28    51    1
53    29    30    1
54    29    52    1
55    30    31    2
56    31    53    1
@<TRIPOS>SUBSTRUCTURE
1   ZINC000469391664 1     RESIDUE    1   A     ZIN   1
@<TRIPOS>MOLECULE
ZINC000496437542
54	55	1	0	0
SMALL
USER_CHARGES
@<TRIPOS>ATOM
1      C1     -0.0187    1.5258    0.0104 C.3      1 ZINC000496437542   -0.1800
2      C2      0.0021   -0.0041    0.0020 C.3      1 ZINC000496437542    0.1400
3      C3      0.7421   -0.5109    1.2415 C.3      1 ZINC000496437542   -0.1800
4      C4     -1.4333   -0.5336    0.0129 C.3      1 ZINC000496437542   -0.1400
5      O5      0.6817   -0.4723   -1.1926 O.3      1 ZINC000496437542   -0.3600
6      C6      1.9630   -0.0923   -1.3556 C.2      1 ZINC000496437542    0.6600
7      O7      2.4986    0.6115   -0.5223 O.2      1 ZINC000496437542   -0.5600
8      N8      2.6515   -0.4924   -2.4429 N.am     1 ZINC000496437542   -0.6000
9      C9      2.0223   -1.3396   -3.4684 C.3      1 ZINC000496437542    0.0800
10     C10     2.2659   -0.7000   -4.8401 C.3      1 ZINC000496437542    0.0500
11     O11     3.6634   -0.4436   -4.9984 O.3      1 ZINC000496437542   -0.3700
12     C12     4.1990    0.4845   -4.0520 C.3      1 ZINC000496437542    0.0700
13     H13     3.6539    1.4262   -4.1170 H        1 ZINC000496437542    0.0700
14     C14     5.6784    0.7284   -4.3565 C.3      1 ZINC000496437542    0.1300
15     N15     5.8069    1.3863   -5.6591 N.am     1 ZINC000496437542   -0.7200
16     C16     7.0269    1.7009   -6.1378 C.2      1 ZINC000496437542    0.5600
17     O17     8.0211    1.4387   -5.4883 O.2      1 ZINC000496437542   -0.5400
18     C18     7.1560    2.3615   -7.4458 C.2      1 ZINC000496437542   -0.1900
19     C19     8.3485    2.6625   -7.9126 C.2      1 ZINC000496437542   -0.0600
20     C20     8.4929    3.3429   -9.2575 C.3      1 ZINC000496437542   -0.1000
21     C21     8.1541    2.3311  -10.3545 C.3      1 ZINC000496437542   -0.1100
22     C22     6.6589    2.2962  -10.6128 C.3      1 ZINC000496437542   -0.1200
23     C23     5.8484    1.7484   -9.4523 C.3      1 ZINC000496437542   -0.1200
24     C24     5.9160    2.6864   -8.2516 C.3      1 ZINC000496437542   -0.0800
25     C25     4.0527   -0.0898   -2.6428 C.3      1 ZINC000496437542    0.1000
26     H26     1.0039    1.9031    0.0027 H        1 ZINC000496437542    0.0900
27     H27    -0.5459    1.8868   -0.8726 H        1 ZINC000496437542    0.0600
28     H28    -0.5289    1.8773    0.9072 H        1 ZINC000496437542    0.0700
29     H29     0.2319   -0.1594    2.1383 H        1 ZINC000496437542    0.0700
30     H30     0.7568   -1.6008    1.2356 H        1 ZINC000496437542    0.0600
31     H31     1.7647   -0.1336    1.2338 H        1 ZINC000496437542    0.0900
32     H32    -1.9605   -0.1726   -0.8702 H        1 ZINC000496437542    0.0700
33     H33    -1.4185   -1.6235    0.0069 H        1 ZINC000496437542    0.0700
34     H34    -1.9435   -0.1821    0.9097 H        1 ZINC000496437542    0.0800
35     H35     2.4648   -2.3355   -3.4439 H        1 ZINC000496437542    0.0800
36     H36     0.9508   -1.4088   -3.2807 H        1 ZINC000496437542    0.1000
37     H37     1.9294   -1.3792   -5.6235 H        1 ZINC000496437542    0.1100
38     H38     1.7138    0.2373   -4.9080 H        1 ZINC000496437542    0.0600
39     H39     6.1082    1.3657   -3.5836 H        1 ZINC000496437542    0.0900
40     H40     6.2071   -0.2246   -4.3770 H        1 ZINC000496437542    0.0800
41     H41     5.0140    1.5954   -6.1772 H        1 ZINC000496437542    0.4000
42     H42     9.2285    2.4235   -7.3338 H        1 ZINC000496437542    0.1300
43     H43     7.8076    4.1886   -9.3152 H        1 ZINC000496437542    0.0800
44     H44     9.5183    3.6902   -9.3838 H        1 ZINC000496437542    0.0800
45     H45     8.6702    2.6115  -11.2727 H        1 ZINC000496437542    0.0700
46     H46     8.4877    1.3408  -10.0445 H        1 ZINC000496437542    0.0700
47     H47     6.3191    3.3096  -10.8266 H        1 ZINC000496437542    0.0600
48     H48     6.4718    1.6775  -11.4904 H        1 ZINC000496437542    0.0600
49     H49     4.8094    1.6357   -9.7620 H        1 ZINC000496437542    0.0700
50     H50     6.2444    0.7739   -9.1667 H        1 ZINC000496437542    0.0600
51     H51     5.0306    2.5503   -7.6305 H        1 ZINC000496437542    0.0700
52     H52     5.9693    3.7191   -8.5964 H        1 ZINC000496437542    0.0800
53     H53     4.3273    0.6668   -1.9077 H        1 ZINC000496437542    0.1100
54     H54     4.6985   -0.9609   -2.5325 H        1 ZINC000496437542    0.0900
@<TRIPOS>BOND
1     1     2     1
2     1     26    1
3     1     27    1
4     1     28    1
5     2     3     1
6     2     4     1
7     2     5     1
8     3     29    1
9     3     30    1
10    3     31    1
11    4     32    1
12    4     33    1
13    4     34    1
14    5     6     1
15    6     7     2
16    6     8     am
17    8     25    1
18    8     9     1
19    9     10    1
20    9     35    1
21    9     36    1
22    10    11    1
23    10    37    1
24    10    38    1
25    11    12    1
26    12    13    1
27    12    14    1
28    12    25    1
29    14    15    1
30    14    39    1
31    14    40    1
32    15    16    am
33    15    41    1
34    16    17    2
35    16    18    1
36    18    24    1
37    18    19    2
38    19    20    1
39    19    42    1
40    20    21    1
41    20    43    1
42    20    44    1
43    21    22    1
44    21    45    1
45    21    46    1
46    22    23    1
47    22    47    1
48    22    48    1
49    23    24    1
50    23    49    1
51    23    50    1
52    24    51    1
53    24    52    1
54    25    53    1
55    25    54    1
@<TRIPOS>SUBSTRUCTURE
1   ZINC000496437542 1     RESIDUE    1   A     ZIN   1
@<TRIPOS>MOLECULE
ZINC000944933040
52	57	1	0	0
SMALL
USER_CHARGES
@<TRIPOS>ATOM
1      O1      0.0021   -0.0041    0.0020 O.2      1 ZINC000944933040   -0.5200
2      C2     -0.0144    1.2119    0.0087 C.2      1 ZINC000944933040    0.6400
3      C3      1.2159    1.9448    0.0009 C.1      1 ZINC000944933040   -0.2200
4      C4      2.2245    2.5455   -0.0055 C.1      1 ZINC000944933040   -0.0400
5      C5      3.4891    3.2988   -0.0135 C.3      1 ZINC000944933040   -0.0700
6      C6      3.8308    4.0921   -1.2764 C.3      1 ZINC000944933040   -0.1600
7      C7      3.4016    4.8263   -0.0045 C.3      1 ZINC000944933040   -0.1600
8      N8     -1.1906    1.8699    0.0179 N.am     1 ZINC000944933040   -0.6000
9      C9     -1.2226    3.3384    0.0198 C.3      1 ZINC000944933040    0.1100
10     C10    -2.0466    3.8121    1.2231 C.3      1 ZINC000944933040   -0.1200
11     C11    -3.4022    3.1100    1.2083 C.3      1 ZINC000944933040   -0.0900
12     C12    -4.3950    3.6679    2.2374 C.3      1 ZINC000944933040    0.1200
13     N13    -5.4057    3.5609    1.1662 N.am     1 ZINC000944933040   -0.6400
14     C14    -6.7478    3.4394    1.1434 C.2      1 ZINC000944933040    0.5500
15     O15    -7.3707    3.3984    2.1832 O.2      1 ZINC000944933040   -0.5300
16     C16    -7.4745    3.3545   -0.1741 C.3      1 ZINC000944933040   -0.1300
17     H17    -7.1274    2.4968   -0.7503 H        1 ZINC000944933040    0.1100
18     C18    -7.3009    4.6656   -0.9824 C.3      1 ZINC000944933040   -0.1300
19     C19    -8.7644    5.1827   -1.1194 C.3      1 ZINC000944933040    0.0900
20     H20    -8.8665    6.2496   -1.3177 H        1 ZINC000944933040    0.1300
21     O21    -9.3528    4.7112    0.1371 O.3      1 ZINC000944933040   -0.3600
22     C22    -9.0150    3.2829    0.0488 C.3      1 ZINC000944933040    0.1200
23     H23    -9.3504    2.6658    0.8823 H        1 ZINC000944933040    0.1400
24     C24    -9.6166    2.9138   -1.3404 C.3      1 ZINC000944933040   -0.2000
25     H25    -9.3993    1.9274   -1.7501 H        1 ZINC000944933040    0.1200
26     C26   -10.8666    3.6749   -1.7867 C.3      1 ZINC000944933040   -0.1300
27     C27    -9.4378    4.2418   -2.1630 C.3      1 ZINC000944933040   -0.2000
28     H28    -9.1146    4.2682   -3.2037 H        1 ZINC000944933040    0.1300
29     C29    -4.3569    3.6413    0.1299 C.3      1 ZINC000944933040    0.1100
30     C30    -3.2910    1.5875    1.2288 C.3      1 ZINC000944933040   -0.1100
31     C31    -2.4587    1.1286    0.0198 C.3      1 ZINC000944933040    0.1100
32     H32     4.3138    2.8387    0.5307 H        1 ZINC000944933040    0.1400
33     H33     4.8806    4.1539   -1.5632 H        1 ZINC000944933040    0.1100
34     H34     3.1192    4.0562   -2.1012 H        1 ZINC000944933040    0.1000
35     H35     2.4076    5.2734    0.0074 H        1 ZINC000944933040    0.1000
36     H36     4.1690    5.3711    0.5454 H        1 ZINC000944933040    0.1100
37     H37    -0.2068    3.7259    0.0972 H        1 ZINC000944933040    0.0900
38     H38    -1.6829    3.6951   -0.9015 H        1 ZINC000944933040    0.0800
39     H39    -1.5193    3.5669    2.1451 H        1 ZINC000944933040    0.0800
40     H40    -2.1939    4.8903    1.1621 H        1 ZINC000944933040    0.0900
41     H41    -4.5755    3.0010    3.0804 H        1 ZINC000944933040    0.0800
42     H42    -4.1834    4.6930    2.5415 H        1 ZINC000944933040    0.0900
43     H43    -6.6888    5.3803   -0.4323 H        1 ZINC000944933040    0.0800
44     H44    -6.8704    4.4608   -1.9626 H        1 ZINC000944933040    0.0900
45     H45   -11.4520    3.2454   -2.5998 H        1 ZINC000944933040    0.1000
46     H46   -11.4412    4.1911   -1.0176 H        1 ZINC000944933040    0.1000
47     H47    -4.1340    4.6585   -0.1922 H        1 ZINC000944933040    0.0900
48     H48    -4.5070    2.9533   -0.7020 H        1 ZINC000944933040    0.0800
49     H49    -2.8041    1.2701    2.1509 H        1 ZINC000944933040    0.0800
50     H50    -4.2870    1.1486    1.1716 H        1 ZINC000944933040    0.0800
51     H51    -3.0078    1.3309   -0.8998 H        1 ZINC000944933040    0.0700
52     H52    -2.2563    0.0605    0.0997 H        1 ZINC000944933040    0.1000
@<TRIPOS>BOND
1     1     2     2
2     2     3     1
3     2     8     am
4     3     4     3
5     4     5     1
6     5     7     1
7     5     6     1
8     5     32    1
9     6     7     1
10    6     33    1
11    6     34    1
12    7     35    1
13    7     36    1
14    8     31    1
15    8     9     1
16    9     10    1
17    9     37    1
18    9     38    1
19    10    11    1
20    10    39    1
21    10    40    1
22    11    29    1
23    11    12    1
24    11    30    1
25    12    13    1
26    12    41    1
27    12    42    1
28    13    14    am
29    13    29    1
30    14    15    2
31    14    16    1
32    16    17    1
33    16    22    1
34    16    18    1
35    18    19    1
36    18    43    1
37    18    44    1
38    19    20    1
39    19    27    1
40    19    21    1
41    21    22    1
42    22    23    1
43    22    24    1
44    24    25    1
45    24    27    1
46    24    26    1
47    26    27    1
48    26    45    1
49    26    46    1
50    27    28    1
51    29    47    1
52    29    48    1
53    30    31    1
54    30    49    1
55    30    50    1
56    31    51    1
57    31    52    1
@<TRIPOS>SUBSTRUCTURE
1   ZINC000944933040 1     RESIDUE    1   A     ZIN   1
@<TRIPOS>MOLECULE
ZINC000842947763
42	43	1	0	0
SMALL
USER_CHARGES
@<TRIPOS>ATOM
1      C1     -0.1503    1.5024    0.0772 C.3      1 ZINC000842947763   -0.1600
2      C2      0.0062   -0.0172   -0.0065 C.3      1 ZINC000842947763   -0.1000
3      H3      0.5015   -0.2806   -0.9410 H        1 ZINC000842947763    0.1000
4      C4     -1.3742   -0.6755    0.0421 C.3      1 ZINC000842947763    0.0800
5      O5     -2.1306   -0.3015   -1.1395 O.3      1 ZINC000842947763   -0.3500
6      C6     -3.3772   -0.8011   -1.2514 C.2      1 ZINC000842947763    0.5200
7      O7     -3.8198   -1.5295   -0.3853 O.2      1 ZINC000842947763   -0.5100
8      C8     -4.2035   -0.4643   -2.4244 C.ar     1 ZINC000842947763   -0.1600
9      C9     -3.6970    0.3687   -3.4270 C.ar     1 ZINC000842947763   -0.0200
10     C10    -4.4722    0.6785   -4.5179 C.ar     1 ZINC000842947763   -0.1700
11     C11    -5.7697    0.1648   -4.6330 C.ar     1 ZINC000842947763    0.2000
12     C12    -6.2641   -0.6623   -3.6312 C.ar     1 ZINC000842947763   -0.1500
13     C13    -5.4974   -0.9798   -2.5456 C.ar     1 ZINC000842947763   -0.0100
14     C14    -7.6724   -1.0728   -4.0012 C.3      1 ZINC000842947763   -0.0800
15     C15    -7.9333   -0.3778   -5.3475 C.3      1 ZINC000842947763    0.1100
16     N16    -6.7014    0.3568   -5.6460 N.am     1 ZINC000842947763   -0.9400
17     S17    -6.4548    1.2832   -6.9962 S.o2     1 ZINC000842947763    2.6100
18     C18    -7.0188    2.9396   -6.5179 C.3      1 ZINC000842947763   -0.6700
19     O19    -5.0455    1.2695   -7.1781 O.2      1 ZINC000842947763   -0.9300
20     O20    -7.3246    0.7222   -7.9698 O.2      1 ZINC000842947763   -0.9400
21     C21     0.8475   -0.5091    1.1729 C.3      1 ZINC000842947763   -0.1600
22     C22     2.2762    0.0211    1.0364 C.3      1 ZINC000842947763    0.4600
23     F23     2.2701    1.4147    1.1583 F        1 ZINC000842947763   -0.1800
24     F24     3.0768   -0.5315    2.0419 F        1 ZINC000842947763   -0.1800
25     F25     2.7882   -0.3352   -0.2158 F        1 ZINC000842947763   -0.1800
26     H26     0.8152    1.9772   -0.0976 H        1 ZINC000842947763    0.0700
27     H27    -0.8617    1.8366   -0.6780 H        1 ZINC000842947763    0.0700
28     H28    -0.5158    1.7761    1.0670 H        1 ZINC000842947763    0.0600
29     H29    -1.2592   -1.7590    0.0720 H        1 ZINC000842947763    0.0800
30     H30    -1.9047   -0.3416    0.9339 H        1 ZINC000842947763    0.0800
31     H31    -2.6972    0.7685   -3.3435 H        1 ZINC000842947763    0.1500
32     H32    -4.0788    1.3220   -5.2910 H        1 ZINC000842947763    0.1500
33     H33    -5.8949   -1.6240   -1.7753 H        1 ZINC000842947763    0.1400
34     H34    -7.7364   -2.1552   -4.1128 H        1 ZINC000842947763    0.1000
35     H35    -8.3805   -0.7243   -3.2493 H        1 ZINC000842947763    0.1000
36     H36    -8.1296   -1.1179   -6.1233 H        1 ZINC000842947763    0.1000
37     H37    -8.7730    0.3118   -5.2606 H        1 ZINC000842947763    0.0900
38     H38    -6.4320    3.2923   -5.6696 H        1 ZINC000842947763    0.1300
39     H39    -6.8913    3.6233   -7.3572 H        1 ZINC000842947763    0.1400
40     H40    -8.0718    2.8986   -6.2393 H        1 ZINC000842947763    0.1300
41     H41     0.4133   -0.1473    2.1049 H        1 ZINC000842947763    0.1200
42     H42     0.8634   -1.5990    1.1784 H        1 ZINC000842947763    0.1100
@<TRIPOS>BOND
1     1     2     1
2     1     26    1
3     1     27    1
4     1     28    1
5     2     3     1
6     2     4     1
7     2     21    1
8     4     5     1
9     4     29    1
10    4     30    1
11    5     6     1
12    6     7     2
13    6     8     1
14    8     13    ar
15    8     9     ar
16    9     10    ar
17    9     31    1
18    10    11    ar
19    10    32    1
20    11    16    1
21    11    12    ar
22    12    13    ar
23    12    14    1
24    13    33    1
25    14    15    1
26    14    34    1
27    14    35    1
28    15    16    1
29    15    36    1
30    15    37    1
31    16    17    am
32    17    18    1
33    17    19    2
34    17    20    2
35    18    38    1
36    18    39    1
37    18    40    1
38    21    22    1
39    21    41    1
40    21    42    1
41    22    23    1
42    22    24    1
43    22    25    1
@<TRIPOS>SUBSTRUCTURE
1   ZINC000842947763 1     RESIDUE    1   A     ZIN   1
@<TRIPOS>MOLECULE
ZINC001039825450
43	45	1	0	0
SMALL
USER_CHARGES
@<TRIPOS>ATOM
1      O1      0.0021   -0.0041    0.0020 O.2      1 ZINC001039825450   -0.5100
2      C2     -0.0144    1.2086    0.0087 C.2      1 ZINC001039825450    0.5000
3      C3      1.2803    1.9798    0.0005 C.3      1 ZINC001039825450    0.1300
4      N4      2.4066    1.0431   -0.0153 N.pl3    1 ZINC001039825450   -0.1500
5      N5      2.9748    0.5660    1.0351 N.2      1 ZINC001039825450   -0.2800
6      C6      3.9440   -0.2386    0.6615 C.2      1 ZINC001039825450   -0.0200
7      C7      3.9353   -0.2254   -0.7351 C.2      1 ZINC001039825450   -0.0200
8      N8      2.9582    0.5816   -1.0814 N.2      1 ZINC001039825450   -0.2800
9      N9     -1.1906    1.8666    0.0178 N.am     1 ZINC001039825450   -0.7300
10     C10    -2.4492    1.1169    0.0197 C.3      1 ZINC001039825450    0.1000
11     C11    -3.6255    2.0952    0.0306 C.3      1 ZINC001039825450    0.1100
12     O12    -3.5400    2.9733    1.1548 O.3      1 ZINC001039825450   -0.5400
13     C13    -3.6835    2.8988   -1.2954 C.3      1 ZINC001039825450   -0.1600
14     C14    -5.1890    3.2546   -1.3778 C.3      1 ZINC001039825450    0.1000
15     N15    -5.8867    2.0676   -0.8508 N.am     1 ZINC001039825450   -0.6100
16     C16    -7.1559    1.7129   -1.1328 C.2      1 ZINC001039825450    0.5200
17     O17    -7.6292    0.7107   -0.6403 O.2      1 ZINC001039825450   -0.5100
18     C18    -7.9871    2.5615   -2.0602 C.3      1 ZINC001039825450    0.1100
19     H19    -7.3872    2.9065   -2.9023 H        1 ZINC001039825450    0.1200
20     C20    -8.5928    3.7582   -1.3013 C.3      1 ZINC001039825450    0.1100
21     N21   -10.0441    3.5564   -1.4259 N.am     1 ZINC001039825450   -0.7400
22     C22   -10.2744    2.4413   -2.1313 C.2      1 ZINC001039825450    0.7100
23     O23   -11.3924    2.0365   -2.3853 O.2      1 ZINC001039825450   -0.5800
24     N24    -9.1595    1.8113   -2.5347 N.am     1 ZINC001039825450   -0.7200
25     C25    -4.9683    1.3346    0.0329 C.3      1 ZINC001039825450    0.1200
26     H26     1.3211    2.6120   -0.8866 H        1 ZINC001039825450    0.1400
27     H27     1.3381    2.6024    0.8933 H        1 ZINC001039825450    0.1400
28     H28     4.6109   -0.7956    1.3029 H        1 ZINC001039825450    0.2000
29     H29     4.5940   -0.7704   -1.3951 H        1 ZINC001039825450    0.2000
30     H30    -1.2037    2.8365    0.0232 H        1 ZINC001039825450    0.4000
31     H31    -2.5027    0.4944   -0.8734 H        1 ZINC001039825450    0.0900
32     H32    -2.4943    0.4847    0.9065 H        1 ZINC001039825450    0.0900
33     H33    -2.7310    3.5025    1.1798 H        1 ZINC001039825450    0.3800
34     H34    -3.0721    3.7990   -1.2337 H        1 ZINC001039825450    0.0900
35     H35    -3.3814    2.2803   -2.1405 H        1 ZINC001039825450    0.0900
36     H36    -5.4068    4.1272   -0.7621 H        1 ZINC001039825450    0.0800
37     H37    -5.4795    3.4371   -2.4124 H        1 ZINC001039825450    0.0800
38     H38    -8.2923    3.7386   -0.2537 H        1 ZINC001039825450    0.0900
39     H39    -8.2956    4.6973   -1.7681 H        1 ZINC001039825450    0.1000
40     H40   -10.7262    4.1384   -1.0560 H        1 ZINC001039825450    0.4400
41     H41    -9.1333    0.9922   -3.0537 H        1 ZINC001039825450    0.4400
42     H42    -4.8214    0.3221   -0.3430 H        1 ZINC001039825450    0.0900
43     H43    -5.3740    1.3017    1.0440 H        1 ZINC001039825450    0.0900
@<TRIPOS>BOND
1     1     2     2
2     2     3     1
3     2     9     am
4     3     4     1
5     3     26    1
6     3     27    1
7     4     8     1
8     4     5     1
9     5     6     2
10    6     7     1
11    6     28    1
12    7     8     2
13    7     29    1
14    9     10    1
15    9     30    1
16    10    11    1
17    10    31    1
18    10    32    1
19    11    25    1
20    11    12    1
21    11    13    1
22    12    33    1
23    13    14    1
24    13    34    1
25    13    35    1
26    14    15    1
27    14    36    1
28    14    37    1
29    15    16    am
30    15    25    1
31    16    17    2
32    16    18    1
33    18    19    1
34    18    24    1
35    18    20    1
36    20    21    1
37    20    38    1
38    20    39    1
39    21    22    am
40    21    40    1
41    22    23    2
42    22    24    am
43    24    41    1
44    25    42    1
45    25    43    1
@<TRIPOS>SUBSTRUCTURE
1   ZINC001039825450 1     RESIDUE    1   A     ZIN   1
@<TRIPOS>MOLECULE
ZINC000599797189
42	42	1	0	0
SMALL
USER_CHARGES
@<TRIPOS>ATOM
1      C1     -0.0187    1.5258    0.0104 C.3      1 ZINC000599797189   -0.1500
2      C2      0.0021   -0.0041    0.0020 C.3      1 ZINC000599797189    0.0600
3      O3     -1.3601   -0.5067    0.0123 O.3      1 ZINC000599797189   -0.3600
4      C4     -1.5179   -1.8396    0.0067 C.2      1 ZINC000599797189    0.4500
5      O5     -0.5499   -2.5625   -0.0065 O.2      1 ZINC000599797189   -0.4800
6      C6     -2.9025   -2.4345    0.0167 C.3      1 ZINC000599797189    0.1500
7      N7     -2.8060   -3.8963    0.0079 N.pl3    1 ZINC000599797189   -0.3800
8      C8     -3.3651   -4.7445    0.8874 C.2      1 ZINC000599797189    0.2800
9      N9     -3.0471   -5.9647    0.5372 N.2      1 ZINC000599797189   -0.5100
10     C10    -2.2860   -5.9362   -0.5608 C.2      1 ZINC000599797189    0.4700
11     N11    -1.7614   -7.0545   -1.2172 N.am     1 ZINC000599797189   -0.6400
12     C12    -2.0126   -8.2920   -0.7459 C.2      1 ZINC000599797189    0.7100
13     O13    -2.6951   -8.4363    0.2499 O.2      1 ZINC000599797189   -0.5300
14     N14    -1.5071   -9.3694   -1.3784 N.am     1 ZINC000599797189   -0.7300
15     C15    -1.7801  -10.7145   -0.8661 C.3      1 ZINC000599797189    0.1100
16     C16    -1.0954  -11.7497   -1.7607 C.3      1 ZINC000599797189    0.1100
17     H17    -1.4136  -11.6050   -2.7931 H        1 ZINC000599797189    0.1200
18     O18     0.3222  -11.5921   -1.6726 O.3      1 ZINC000599797189   -0.5400
19     C19    -1.4816  -13.1568   -1.3004 C.3      1 ZINC000599797189   -0.1500
20     C20    -0.9076  -14.1726   -2.2541 C.2      1 ZINC000599797189    0.4600
21     O21    -0.2563  -13.8085   -3.2045 O.2      1 ZINC000599797189   -0.4900
22     O22    -1.1198  -15.4818   -2.0478 O.3      1 ZINC000599797189   -0.3600
23     C23    -0.5368  -16.4032   -3.0068 C.3      1 ZINC000599797189    0.0400
24     N24    -2.1160   -4.6876   -0.9248 N.2      1 ZINC000599797189   -0.3200
25     H25     1.0039    1.9031    0.0027 H        1 ZINC000599797189    0.0800
26     H26    -0.5459    1.8868   -0.8726 H        1 ZINC000599797189    0.0700
27     H27    -0.5289    1.8773    0.9072 H        1 ZINC000599797189    0.0700
28     H28     0.5123   -0.3556   -0.8948 H        1 ZINC000599797189    0.0700
29     H29     0.5293   -0.3651    0.8851 H        1 ZINC000599797189    0.0700
30     H30    -3.4306   -2.1106    0.9135 H        1 ZINC000599797189    0.1500
31     H31    -3.4476   -2.1011   -0.8663 H        1 ZINC000599797189    0.1300
32     H32    -3.9718   -4.4672    1.7367 H        1 ZINC000599797189    0.2300
33     H33    -1.2169   -6.9394   -2.0117 H        1 ZINC000599797189    0.4200
34     H34    -0.9626   -9.2543   -2.1729 H        1 ZINC000599797189    0.4000
35     H35    -1.3955  -10.8012    0.1501 H        1 ZINC000599797189    0.0800
36     H36    -2.8557  -10.8910   -0.8637 H        1 ZINC000599797189    0.0800
37     H37     0.6761  -11.7076   -0.7801 H        1 ZINC000599797189    0.3800
38     H38    -1.0860  -13.3333   -0.3002 H        1 ZINC000599797189    0.1200
39     H39    -2.5677  -13.2480   -1.2829 H        1 ZINC000599797189    0.1200
40     H40    -0.9355  -16.1948   -3.9996 H        1 ZINC000599797189    0.0600
41     H41     0.5462  -16.2801   -3.0169 H        1 ZINC000599797189    0.0600
42     H42    -0.7835  -17.4265   -2.7236 H        1 ZINC000599797189    0.1000
@<TRIPOS>BOND
1     1     2     1
2     1     25    1
3     1     26    1
4     1     27    1
5     2     3     1
6     2     28    1
7     2     29    1
8     3     4     1
9     4     5     2
10    4     6     1
11    6     7     1
12    6     30    1
13    6     31    1
14    7     24    1
15    7     8     1
16    8     9     2
17    8     32    1
18    9     10    1
19    10    11    1
20    10    24    2
21    11    12    am
22    11    33    1
23    12    13    2
24    12    14    am
25    14    15    1
26    14    34    1
27    15    16    1
28    15    35    1
29    15    36    1
30    16    17    1
31    16    18    1
32    16    19    1
33    18    37    1
34    19    20    1
35    19    38    1
36    19    39    1
37    20    21    2
38    20    22    1
39    22    23    1
40    23    40    1
41    23    41    1
42    23    42    1
@<TRIPOS>SUBSTRUCTURE
1   ZINC000599797189 1     RESIDUE    1   A     ZIN   1
@<TRIPOS>MOLECULE
ZINC000629379364
44	46	1	0	0
SMALL
USER_CHARGES
@<TRIPOS>ATOM
1      O1      0.0705    0.1419    0.6102 O.co2    1 ZINC000629379364   -0.6800
2      C2      0.0246    1.3552    0.4997 C.2      1 ZINC000629379364    0.5000
3      O3      1.0549    2.0072    0.5038 O.co2    1 ZINC000629379364   -0.6900
4      C4     -1.3052    2.0486    0.3517 C.3      1 ZINC000629379364   -0.1600
5      H5     -2.1049    1.4001    0.7097 H        1 ZINC000629379364    0.0800
6      C6     -1.5459    2.4149   -1.1233 C.3      1 ZINC000629379364   -0.1300
7      C7     -2.8158    3.2449   -1.2855 C.3      1 ZINC000629379364   -0.0100
8      N8     -2.8014    4.4432   -0.4244 N.4      1 ZINC000629379364   -0.3700
9      H9     -3.6531    4.9685   -0.5537 H        1 ZINC000629379364    0.4200
10     C10    -1.6424    5.2825   -0.7564 C.3      1 ZINC000629379364   -0.0200
11     C11    -1.8133    5.8539   -2.1653 C.3      1 ZINC000629379364    0.0300
12     O12    -2.9376    6.7356   -2.1886 O.3      1 ZINC000629379364   -0.3200
13     C13    -3.2296    7.3318   -3.3744 C.ar     1 ZINC000629379364    0.1600
14     C14    -2.4536    7.0690   -4.4933 C.ar     1 ZINC000629379364   -0.2300
15     C15    -2.7528    7.6772   -5.6998 C.ar     1 ZINC000629379364    0.1500
16     F16    -1.9975    7.4219   -6.7905 F        1 ZINC000629379364   -0.1200
17     C17    -3.8263    8.5471   -5.7895 C.ar     1 ZINC000629379364   -0.1600
18     C18    -4.6006    8.8101   -4.6736 C.ar     1 ZINC000629379364   -0.0300
19     Br19   -6.0661    9.9986   -4.7995 Br       1 ZINC000629379364   -0.0100
20     C20    -4.3080    8.1998   -3.4684 C.ar     1 ZINC000629379364   -0.1300
21     C21    -2.7056    3.9887    0.9534 C.3      1 ZINC000629379364   -0.0100
22     H22    -3.4809    3.2502    1.1574 H        1 ZINC000629379364    0.1400
23     C23    -2.7215    5.0778    2.0310 C.3      1 ZINC000629379364   -0.1300
24     C24    -2.0430    4.3810    3.2416 C.3      1 ZINC000629379364   -0.1200
25     C25    -1.1638    3.2481    2.6570 C.3      1 ZINC000629379364   -0.1100
26     C26    -1.3022    3.3498    1.1355 C.3      1 ZINC000629379364   -0.0700
27     H27    -0.5533    4.0355    0.7392 H        1 ZINC000629379364    0.1000
28     H28    -0.6952    2.9876   -1.4926 H        1 ZINC000629379364    0.0800
29     H29    -1.6402    1.4998   -1.7079 H        1 ZINC000629379364    0.1100
30     H30    -2.9058    3.5566   -2.3262 H        1 ZINC000629379364    0.1200
31     H31    -3.6774    2.6305   -1.0246 H        1 ZINC000629379364    0.1300
32     H32    -1.5685    6.1000   -0.0392 H        1 ZINC000629379364    0.1400
33     H33    -0.7345    4.6806   -0.7161 H        1 ZINC000629379364    0.1700
34     H34    -0.9147    6.4034   -2.4460 H        1 ZINC000629379364    0.1100
35     H35    -1.9760    5.0390   -2.8707 H        1 ZINC000629379364    0.0900
36     H36    -1.6163    6.3904   -4.4230 H        1 ZINC000629379364    0.1500
37     H37    -4.0593    9.0210   -6.7316 H        1 ZINC000629379364    0.1500
38     H38    -4.9133    8.4055   -2.5979 H        1 ZINC000629379364    0.1500
39     H39    -2.1432    5.9447    1.7115 H        1 ZINC000629379364    0.0800
40     H40    -3.7446    5.3640    2.2748 H        1 ZINC000629379364    0.0900
41     H41    -1.4223    5.0941    3.7840 H        1 ZINC000629379364    0.0800
42     H42    -2.8000    3.9627    3.9049 H        1 ZINC000629379364    0.0800
43     H43    -0.1256    3.3808    2.9614 H        1 ZINC000629379364    0.0900
44     H44    -1.5329    2.2764    2.9853 H        1 ZINC000629379364    0.0800
@<TRIPOS>BOND
1     1     2     ar
2     2     3     ar
3     2     4     1
4     4     5     1
5     4     26    1
6     4     6     1
7     6     7     1
8     6     28    1
9     6     29    1
10    7     8     1
11    7     30    1
12    7     31    1
13    8     9     1
14    8     10    1
15    8     21    1
16    10    11    1
17    10    32    1
18    10    33    1
19    11    12    1
20    11    34    1
21    11    35    1
22    12    13    1
23    13    20    ar
24    13    14    ar
25    14    15    ar
26    14    36    1
27    15    16    1
28    15    17    ar
29    17    18    ar
30    17    37    1
31    18    19    1
32    18    20    ar
33    20    38    1
34    21    22    1
35    21    26    1
36    21    23    1
37    23    24    1
38    23    39    1
39    23    40    1
40    24    25    1
41    24    41    1
42    24    42    1
43    25    26    1
44    25    43    1
45    25    44    1
46    26    27    1
@<TRIPOS>SUBSTRUCTURE
1   ZINC000629379364 1     RESIDUE    1   A     ZIN   1
@<TRIPOS>MOLECULE
ZINC000894043060
47	47	1	0	0
SMALL
USER_CHARGES
@<TRIPOS>ATOM
1      C1     -0.0187    1.5258    0.0104 C.3      1 ZINC000894043060   -0.1700
2      C2      0.0021   -0.0041    0.0020 C.3      1 ZINC000894043060    0.1000
3      H3     -1.0205   -0.3814    0.0098 H        1 ZINC000894043060    0.1100
4      N4      0.7106   -0.4894    1.1889 N.am     1 ZINC000894043060   -0.7300
5      C5      0.0512   -0.6335    2.3554 C.2      1 ZINC000894043060    0.5200
6      O6     -1.1288   -0.3614    2.4226 O.2      1 ZINC000894043060   -0.5200
7      C7      0.7801   -1.1327    3.5763 C.3      1 ZINC000894043060   -0.1400
8      C8     -0.1910   -1.2038    4.7565 C.3      1 ZINC000894043060   -0.0200
9      C9      0.5159   -1.8271    5.9618 C.3      1 ZINC000894043060   -0.1400
10     C10    -0.4726   -2.0102    7.0845 C.2      1 ZINC000894043060    0.5200
11     O11    -1.6286   -1.6751    6.9353 O.2      1 ZINC000894043060   -0.5200
12     N12    -0.0719   -2.5463    8.2544 N.am     1 ZINC000894043060   -0.7300
13     C13    -1.0328   -2.7242    9.3458 C.3      1 ZINC000894043060    0.1000
14     H14    -1.7489   -1.9025    9.3370 H        1 ZINC000894043060    0.1200
15     C15    -1.7749   -4.0494    9.1610 C.3      1 ZINC000894043060   -0.1700
16     C16    -0.2891   -2.7383   10.6828 C.3      1 ZINC000894043060    0.2600
17     F17    -1.2067   -2.9082   11.7251 F        1 ZINC000894043060   -0.1900
18     F18     0.6300   -3.7929   10.6941 F        1 ZINC000894043060   -0.2000
19     C19    -0.6551    0.1858    5.1096 C.ar     1 ZINC000894043060   -0.0600
20     C20     0.2649    1.1468    5.4853 C.ar     1 ZINC000894043060   -0.1200
21     C21    -0.1601    2.4215    5.8093 C.ar     1 ZINC000894043060   -0.1200
22     C22    -1.5066    2.7355    5.7576 C.ar     1 ZINC000894043060   -0.0400
23     Cl23   -2.0411    4.3364    6.1639 Cl       1 ZINC000894043060   -0.0800
24     C24    -2.4268    1.7732    5.3815 C.ar     1 ZINC000894043060   -0.1100
25     C25    -2.0000    0.5005    5.0523 C.ar     1 ZINC000894043060   -0.0400
26     C26     0.7182   -0.4975   -1.2568 C.3      1 ZINC000894043060    0.2600
27     F27     0.6379   -1.8926   -1.3224 F        1 ZINC000894043060   -0.2000
28     F28     0.1101    0.0584   -2.3874 F        1 ZINC000894043060   -0.1900
29     H29     1.0039    1.9031    0.0027 H        1 ZINC000894043060    0.0600
30     H30    -0.5459    1.8868   -0.8726 H        1 ZINC000894043060    0.0800
31     H31    -0.5289    1.8773    0.9072 H        1 ZINC000894043060    0.0800
32     H32     1.6544   -0.7070    1.1351 H        1 ZINC000894043060    0.4000
33     H33     1.1839   -2.1254    3.3778 H        1 ZINC000894043060    0.1000
34     H34     1.5952   -0.4503    3.8172 H        1 ZINC000894043060    0.1000
35     H35    -1.0508   -1.8155    4.4832 H        1 ZINC000894043060    0.1000
36     H36     0.9290   -2.7956    5.6799 H        1 ZINC000894043060    0.1000
37     H37     1.3213   -1.1703    6.2903 H        1 ZINC000894043060    0.1000
38     H38     0.8527   -2.8143    8.3737 H        1 ZINC000894043060    0.4000
39     H39    -1.0587   -4.8711    9.1698 H        1 ZINC000894043060    0.0700
40     H40    -2.4898   -4.1818    9.9731 H        1 ZINC000894043060    0.0800
41     H41    -2.3047   -4.0394    8.2085 H        1 ZINC000894043060    0.0700
42     H42     0.2395   -1.7942   10.8145 H        1 ZINC000894043060    0.1200
43     H43     1.3158    0.9015    5.5260 H        1 ZINC000894043060    0.1200
44     H44     0.5586    3.1721    6.1032 H        1 ZINC000894043060    0.1300
45     H45    -3.4780    2.0177    5.3413 H        1 ZINC000894043060    0.1300
46     H46    -2.7182   -0.2506    4.7584 H        1 ZINC000894043060    0.1300
47     H47     1.7648   -0.1951   -1.2215 H        1 ZINC000894043060    0.1100
@<TRIPOS>BOND
1     1     2     1
2     1     29    1
3     1     30    1
4     1     31    1
5     2     3     1
6     2     4     1
7     2     26    1
8     4     5     am
9     4     32    1
10    5     6     2
11    5     7     1
12    7     8     1
13    7     33    1
14    7     34    1
15    8     9     1
16    8     19    1
17    8     35    1
18    9     10    1
19    9     36    1
20    9     37    1
21    10    11    2
22    10    12    am
23    12    13    1
24    12    38    1
25    13    14    1
26    13    15    1
27    13    16    1
28    15    39    1
29    15    40    1
30    15    41    1
31    16    17    1
32    16    18    1
33    16    42    1
34    19    25    ar
35    19    20    ar
36    20    21    ar
37    20    43    1
38    21    22    ar
39    21    44    1
40    22    23    1
41    22    24    ar
42    24    25    ar
43    24    45    1
44    25    46    1
45    26    27    1
46    26    28    1
47    26    47    1
@<TRIPOS>SUBSTRUCTURE
1   ZINC000894043060 1     RESIDUE    1   A     ZIN   1
@<TRIPOS>MOLECULE
ZINC000971513996
54	57	1	0	0
SMALL
USER_CHARGES
@<TRIPOS>ATOM
1      C1     -0.7742    1.9261   -0.4460 C.3      1 ZINC000971513996   -0.1600
2      C2     -0.7995    0.4105   -0.2378 C.3      1 ZINC000971513996   -0.1400
3      C3     -2.2167   -0.0295    0.1348 C.3      1 ZINC000971513996    0.0800
4      H4     -2.5622    0.5469    0.9930 H        1 ZINC000971513996    0.0800
5      O5     -3.0916    0.1942   -0.9727 O.3      1 ZINC000971513996   -0.3600
6      C6     -3.8460    1.4045   -0.8822 C.3      1 ZINC000971513996    0.0200
7      C7     -2.2122   -1.4956    0.4833 C.2      1 ZINC000971513996    0.5400
8      O8     -2.8190   -2.2853   -0.2088 O.2      1 ZINC000971513996   -0.5100
9      N9     -1.5338   -1.9293    1.5641 N.am     1 ZINC000971513996   -0.6400
10     C10    -0.7101   -1.3226    2.6237 C.3      1 ZINC000971513996    0.1000
11     C11    -1.1572   -2.4760    3.5423 C.3      1 ZINC000971513996   -0.1200
12     H12    -0.3860   -2.8591    4.2106 H        1 ZINC000971513996    0.1100
13     C13    -2.4782   -2.1510    4.2439 C.3      1 ZINC000971513996   -0.1200
14     C14    -3.3281   -3.4220    4.3320 C.3      1 ZINC000971513996    0.1100
15     N15    -3.5503   -3.9207    2.9722 N.am     1 ZINC000971513996   -0.6000
16     C16    -4.8083   -4.1036    2.5244 C.2      1 ZINC000971513996    0.5900
17     O17    -5.7529   -3.7387    3.1984 O.2      1 ZINC000971513996   -0.5200
18     C18    -5.0390   -4.7442    1.2209 C.2      1 ZINC000971513996    0.0200
19     C19    -6.2155   -4.7458    0.5414 C.2      1 ZINC000971513996   -0.1000
20     C20    -6.0176   -5.4657   -0.6617 C.ar     1 ZINC000971513996   -0.1100
21     C21    -6.8540   -5.7906   -1.7371 C.ar     1 ZINC000971513996   -0.0600
22     C22    -6.3636   -6.5168   -2.7833 C.ar     1 ZINC000971513996   -0.1200
23     C23    -7.2663   -6.8647   -3.9388 C.3      1 ZINC000971513996   -0.1100
24     C24    -5.0400   -6.9378   -2.7934 C.ar     1 ZINC000971513996   -0.0800
25     C25    -4.1978   -6.6310   -1.7479 C.ar     1 ZINC000971513996   -0.1300
26     C26    -4.6747   -5.8919   -0.6692 C.ar     1 ZINC000971513996    0.1100
27     N27    -4.0923   -5.4350    0.4894 N.pl3    1 ZINC000971513996   -0.5800
28     C28    -2.4221   -4.2201    2.1002 C.3      1 ZINC000971513996    0.0700
29     C29    -1.2879   -3.2160    2.2193 C.3      1 ZINC000971513996    0.1300
30     H30    -0.3405   -3.6506    1.9006 H        1 ZINC000971513996    0.1100
31     H31     0.2527    2.2534   -0.6087 H        1 ZINC000971513996    0.0600
32     H32    -1.3796    2.1837   -1.3150 H        1 ZINC000971513996    0.0600
33     H33    -1.1776    2.4210    0.4375 H        1 ZINC000971513996    0.0600
34     H34    -0.4945   -0.0877   -1.1581 H        1 ZINC000971513996    0.0800
35     H35    -0.1129    0.1425    0.5652 H        1 ZINC000971513996    0.0800
36     H36    -4.5347    1.3412   -0.0397 H        1 ZINC000971513996    0.0400
37     H37    -3.1680    2.2451   -0.7349 H        1 ZINC000971513996    0.0500
38     H38    -4.4108    1.5502   -1.8030 H        1 ZINC000971513996    0.0900
39     H39     0.3574   -1.3306    2.4034 H        1 ZINC000971513996    0.0900
40     H40    -1.0679   -0.3451    2.9471 H        1 ZINC000971513996    0.0800
41     H41    -2.2752   -1.7784    5.2479 H        1 ZINC000971513996    0.0900
42     H42    -3.0157   -1.3924    3.6748 H        1 ZINC000971513996    0.0700
43     H43    -2.8026   -4.1756    4.9186 H        1 ZINC000971513996    0.0800
44     H44    -4.2852   -3.1924    4.8004 H        1 ZINC000971513996    0.1000
45     H45    -7.1365   -4.2813    0.8615 H        1 ZINC000971513996    0.1500
46     H46    -7.8846   -5.4677   -1.7382 H        1 ZINC000971513996    0.1200
47     H47    -7.2107   -6.0793   -4.6926 H        1 ZINC000971513996    0.0700
48     H48    -6.9484   -7.8112   -4.3761 H        1 ZINC000971513996    0.0600
49     H49    -8.2928   -6.9552   -3.5835 H        1 ZINC000971513996    0.0600
50     H50    -4.6677   -7.5117   -3.6291 H        1 ZINC000971513996    0.1300
51     H51    -3.1703   -6.9632   -1.7647 H        1 ZINC000971513996    0.1200
52     H52    -3.1688   -5.5755    0.7507 H        1 ZINC000971513996    0.4200
53     H53    -2.0318   -5.2050    2.3567 H        1 ZINC000971513996    0.0800
54     H54    -2.7721   -4.2416    1.0681 H        1 ZINC000971513996    0.1200
@<TRIPOS>BOND
1     1     2     1
2     1     31    1
3     1     32    1
4     1     33    1
5     2     3     1
6     2     34    1
7     2     35    1
8     3     4     1
9     3     5     1
10    3     7     1
11    5     6     1
12    6     36    1
13    6     37    1
14    6     38    1
15    7     8     2
16    7     9     am
17    9     29    1
18    9     10    1
19    10    11    1
20    10    39    1
21    10    40    1
22    11    12    1
23    11    29    1
24    11    13    1
25    13    14    1
26    13    41    1
27    13    42    1
28    14    15    1
29    14    43    1
30    14    44    1
31    15    16    am
32    15    28    1
33    16    17    2
34    16    18    1
35    18    27    1
36    18    19    2
37    19    20    1
38    19    45    1
39    20    26    ar
40    20    21    ar
41    21    22    ar
42    21    46    1
43    22    23    1
44    22    24    ar
45    23    47    1
46    23    48    1
47    23    49    1
48    24    25    ar
49    24    50    1
50    25    26    ar
51    25    51    1
52    26    27    1
53    27    52    1
54    28    29    1
55    28    53    1
56    28    54    1
57    29    30    1
@<TRIPOS>SUBSTRUCTURE
1   ZINC000971513996 1     RESIDUE    1   A     ZIN   1
@<TRIPOS>MOLECULE
ZINC000794876634
41	43	1	0	0
SMALL
USER_CHARGES
@<TRIPOS>ATOM
1      C1      0.1318    1.2577    0.1004 C.3      1 ZINC000794876634    0.0200
2      O2      0.0553   -0.1012   -0.3349 O.3      1 ZINC000794876634   -0.3000
3      C3     -1.1536   -0.7123   -0.2386 C.ar     1 ZINC000794876634    0.1300
4      C4     -2.2447   -0.0129    0.2605 C.ar     1 ZINC000794876634   -0.1800
5      C5     -3.4734   -0.6267    0.3613 C.ar     1 ZINC000794876634   -0.0400
6      C6     -4.6548    0.1358    0.9034 C.3      1 ZINC000794876634   -0.1200
7      C7     -3.6245   -1.9604   -0.0408 C.ar     1 ZINC000794876634   -0.1000
8      C8     -4.9308   -2.6167    0.0647 C.2      1 ZINC000794876634    0.0600
9      C9     -5.0188   -3.8861    0.5586 C.2      1 ZINC000794876634   -0.1700
10     C10    -6.1984   -4.7683    0.5625 C.2      1 ZINC000794876634    0.5700
11     O11    -7.2979   -4.4956    0.1165 O.2      1 ZINC000794876634   -0.4900
12     N12    -5.8469   -5.9271    1.1445 N.am     1 ZINC000794876634   -0.5300
13     C13    -6.7537   -7.0621    1.3340 C.3      1 ZINC000794876634    0.0800
14     C14    -4.5191   -5.9155    1.5427 C.ar     1 ZINC000794876634    0.3700
15     N15    -3.7745   -6.8341    2.1455 N.ar     1 ZINC000794876634   -0.4900
16     C16    -2.5086   -6.6199    2.4419 C.ar     1 ZINC000794876634    0.1800
17     C17    -1.8873   -5.4214    2.1388 C.ar     1 ZINC000794876634   -0.1800
18     Br18   -0.0685   -5.1472    2.5777 Br       1 ZINC000794876634   -0.0200
19     C19    -2.6164   -4.4236    1.5082 C.ar     1 ZINC000794876634    0.0000
20     C20    -3.9487   -4.6799    1.2017 C.ar     1 ZINC000794876634   -0.1400
21     C21    -2.5220   -2.6648   -0.5448 C.ar     1 ZINC000794876634   -0.1400
22     C22    -1.2965   -2.0390   -0.6466 C.ar     1 ZINC000794876634    0.0900
23     O23    -0.2249   -2.7189   -1.1354 O.3      1 ZINC000794876634   -0.3000
24     C24    -0.4642   -4.0378   -1.6307 C.3      1 ZINC000794876634    0.0200
25     H25     1.1499    1.6243   -0.0303 H        1 ZINC000794876634    0.1000
26     H26    -0.5525    1.8673   -0.4898 H        1 ZINC000794876634    0.0600
27     H27    -0.1438    1.3180    1.1533 H        1 ZINC000794876634    0.0600
28     H28    -2.1292    1.0151    0.5707 H        1 ZINC000794876634    0.1400
29     H29    -5.1739    0.6324    0.0836 H        1 ZINC000794876634    0.0800
30     H30    -5.3364   -0.5550    1.3997 H        1 ZINC000794876634    0.0700
31     H31    -4.3086    0.8816    1.6190 H        1 ZINC000794876634    0.0700
32     H32    -5.8236   -2.0960   -0.2484 H        1 ZINC000794876634    0.1500
33     H33    -7.7363   -6.8128    0.9334 H        1 ZINC000794876634    0.0900
34     H34    -6.3589   -7.9337    0.8119 H        1 ZINC000794876634    0.0800
35     H35    -6.8405   -7.2841    2.3976 H        1 ZINC000794876634    0.0800
36     H36    -1.9429   -7.3978    2.9331 H        1 ZINC000794876634    0.1800
37     H37    -2.1612   -3.4766    1.2584 H        1 ZINC000794876634    0.1600
38     H38    -2.6326   -3.6930   -0.8562 H        1 ZINC000794876634    0.1400
39     H39    -0.7854   -4.6808   -0.8113 H        1 ZINC000794876634    0.0500
40     H40    -1.2427   -4.0040   -2.3928 H        1 ZINC000794876634    0.0600
41     H41     0.4531   -4.4345   -2.0658 H        1 ZINC000794876634    0.1100
@<TRIPOS>BOND
1     1     2     1
2     1     25    1
3     1     26    1
4     1     27    1
5     2     3     1
6     3     22    ar
7     3     4     ar
8     4     5     ar
9     4     28    1
10    5     6     1
11    5     7     ar
12    6     29    1
13    6     30    1
14    6     31    1
15    7     8     1
16    7     21    ar
17    8     9     2
18    8     32    1
19    9     20    1
20    9     10    1
21    10    11    2
22    10    12    am
23    12    13    1
24    12    14    1
25    13    33    1
26    13    34    1
27    13    35    1
28    14    20    ar
29    14    15    ar
30    15    16    ar
31    16    17    ar
32    16    36    1
33    17    18    1
34    17    19    ar
35    19    20    ar
36    19    37    1
37    21    22    ar
38    21    38    1
39    22    23    1
40    23    24    1
41    24    39    1
42    24    40    1
43    24    41    1
@<TRIPOS>SUBSTRUCTURE
1   ZINC000794876634 1     RESIDUE    1   A     ZIN   1
@<TRIPOS>MOLECULE
ZINC000482962466
47	50	1	0	0
SMALL
USER_CHARGES
@<TRIPOS>ATOM
1      C1      0.1151    1.5072   -0.5943 C.3      1 ZINC000482962466   -0.1400
2      C2      0.1192   -0.0228   -0.5863 C.3      1 ZINC000482962466    0.0700
3      H3      0.3807   -0.3913   -1.5782 H        1 ZINC000482962466    0.0700
4      C4     -1.2722   -0.5367   -0.1994 C.3      1 ZINC000482962466    0.0800
5      N5     -1.1953   -1.9947   -0.0167 N.am     1 ZINC000482962466   -0.6100
6      C6     -2.0705   -2.8178   -0.6275 C.2      1 ZINC000482962466    0.5600
7      O7     -2.9819   -2.3554   -1.2858 O.2      1 ZINC000482962466   -0.5200
8      C8     -1.9223   -4.2821   -0.4969 C.ar     1 ZINC000482962466   -0.1100
9      C9     -1.9546   -5.0919   -1.6461 C.ar     1 ZINC000482962466   -0.0700
10     C10    -1.8206   -6.4394   -1.5520 C.ar     1 ZINC000482962466   -0.1000
11     C11    -1.6466   -7.0433   -0.2933 C.ar     1 ZINC000482962466   -0.0400
12     C12    -1.5057   -8.4354   -0.1711 C.ar     1 ZINC000482962466   -0.0700
13     C13    -1.3383   -8.9916    1.0612 C.ar     1 ZINC000482962466   -0.0800
14     Br14   -1.1486  -10.8664    1.2188 Br       1 ZINC000482962466   -0.0400
15     C15    -1.3043   -8.1990    2.2083 C.ar     1 ZINC000482962466   -0.1000
16     C16    -1.4378   -6.8473    2.1289 C.ar     1 ZINC000482962466   -0.0900
17     C17    -1.6119   -6.2372    0.8733 C.ar     1 ZINC000482962466   -0.0500
18     C18    -1.7468   -4.8462    0.7561 C.ar     1 ZINC000482962466   -0.0700
19     C19    -0.1344   -2.5275    0.8532 C.3      1 ZINC000482962466    0.0700
20     C20     1.2004   -1.9152    0.4173 C.3      1 ZINC000482962466    0.0800
21     C21     2.2901   -2.2989    1.4215 C.3      1 ZINC000482962466   -0.1100
22     C22     3.6345   -1.7494    0.9340 C.3      1 ZINC000482962466   -0.1500
23     C23     3.9184   -2.2895   -0.4701 C.3      1 ZINC000482962466    0.0600
24     O24     2.8514   -1.9214   -1.3464 O.3      1 ZINC000482962466   -0.3700
25     C25     1.5776   -2.4468   -0.9670 C.3      1 ZINC000482962466    0.0400
26     O26     1.0770   -0.4928    0.3656 O.3      1 ZINC000482962466   -0.3500
27     H27     1.1052    1.8718   -0.8676 H        1 ZINC000482962466    0.0700
28     H28    -0.6166    1.8648   -1.3188 H        1 ZINC000482962466    0.0800
29     H29    -0.1464    1.8750    0.3979 H        1 ZINC000482962466    0.0700
30     H30    -1.5915   -0.0666    0.7308 H        1 ZINC000482962466    0.0800
31     H31    -1.9832   -0.3031   -0.9920 H        1 ZINC000482962466    0.1000
32     H32    -2.0882   -4.6359   -2.6160 H        1 ZINC000482962466    0.1400
33     H33    -1.8479   -7.0482   -2.4437 H        1 ZINC000482962466    0.1400
34     H34    -1.5304   -9.0623   -1.0502 H        1 ZINC000482962466    0.1400
35     H35    -1.1703   -8.6649    3.1734 H        1 ZINC000482962466    0.1400
36     H36    -1.4102   -6.2458    3.0254 H        1 ZINC000482962466    0.1400
37     H37    -1.7184   -4.2204    1.6359 H        1 ZINC000482962466    0.1400
38     H38    -0.3403   -2.2596    1.8896 H        1 ZINC000482962466    0.0900
39     H39    -0.0900   -3.6123    0.7558 H        1 ZINC000482962466    0.1000
40     H40     2.0539   -1.8727    2.3965 H        1 ZINC000482962466    0.0800
41     H41     2.3470   -3.3845    1.5007 H        1 ZINC000482962466    0.0800
42     H42     3.5937   -0.6606    0.9041 H        1 ZINC000482962466    0.0800
43     H43     4.4257   -2.0668    1.6132 H        1 ZINC000482962466    0.0800
44     H44     4.8535   -1.8683   -0.8392 H        1 ZINC000482962466    0.1000
45     H45     3.9991   -3.3758   -0.4321 H        1 ZINC000482962466    0.0500
46     H46     1.6274   -3.5352   -0.9372 H        1 ZINC000482962466    0.0600
47     H47     0.8257   -2.1368   -1.6927 H        1 ZINC000482962466    0.1000
@<TRIPOS>BOND
1     1     2     1
2     1     27    1
3     1     28    1
4     1     29    1
5     2     3     1
6     2     26    1
7     2     4     1
8     4     5     1
9     4     30    1
10    4     31    1
11    5     6     am
12    5     19    1
13    6     7     2
14    6     8     1
15    8     18    ar
16    8     9     ar
17    9     10    ar
18    9     32    1
19    10    11    ar
20    10    33    1
21    11    17    ar
22    11    12    ar
23    12    13    ar
24    12    34    1
25    13    14    1
26    13    15    ar
27    15    16    ar
28    15    35    1
29    16    17    ar
30    16    36    1
31    17    18    ar
32    18    37    1
33    19    20    1
34    19    38    1
35    19    39    1
36    20    25    1
37    20    21    1
38    20    26    1
39    21    22    1
40    21    40    1
41    21    41    1
42    22    23    1
43    22    42    1
44    22    43    1
45    23    24    1
46    23    44    1
47    23    45    1
48    24    25    1
49    25    46    1
50    25    47    1
@<TRIPOS>SUBSTRUCTURE
1   ZINC000482962466 1     RESIDUE    1   A     ZIN   1
@<TRIPOS>MOLECULE
ZINC001347442583
57	60	1	0	0
SMALL
USER_CHARGES
@<TRIPOS>ATOM
1      O1      0.0021   -0.0041    0.0020 O.2      1 ZINC001347442583   -0.5400
2      C2     -0.0144    1.2086    0.0087 C.2      1 ZINC001347442583    0.5400
3      C3      1.2803    1.9798    0.0005 C.3      1 ZINC001347442583   -0.1400
4      C4      2.4566    1.0015   -0.0160 C.3      1 ZINC001347442583   -0.1000
5      C5      3.7710    1.7845   -0.0244 C.3      1 ZINC001347442583   -0.1100
6      C6      4.9473    0.8061   -0.0408 C.3      1 ZINC001347442583   -0.0800
7      C7      6.2420    1.5773   -0.0491 C.ar     1 ZINC001347442583   -0.0800
8      C8      6.8214    1.9424   -1.2499 C.ar     1 ZINC001347442583   -0.1200
9      C9      8.0090    2.6498   -1.2574 C.ar     1 ZINC001347442583   -0.1200
10     C10     8.6170    2.9925   -0.0642 C.ar     1 ZINC001347442583   -0.1300
11     C11     8.0371    2.6283    1.1366 C.ar     1 ZINC001347442583   -0.1200
12     C12     6.8472    1.9246    1.1442 C.ar     1 ZINC001347442583   -0.1200
13     N13    -1.1906    1.8666    0.0178 N.am     1 ZINC001347442583   -0.6300
14     C14    -1.4931    3.3382    0.0206 C.3      1 ZINC001347442583    0.1200
15     H15    -0.6281    4.0013    0.0203 H        1 ZINC001347442583    0.1200
16     C16    -2.4251    3.4492    1.2647 C.3      1 ZINC001347442583   -0.1300
17     C17    -3.1811    2.0977    1.2700 C.3      1 ZINC001347442583   -0.1300
18     C18    -2.6029    1.3542    0.0218 C.3      1 ZINC001347442583    0.1200
19     H19    -2.7147    0.2700    0.0266 H        1 ZINC001347442583    0.1200
20     C20    -3.2181    2.0881   -1.2077 C.3      1 ZINC001347442583    0.1300
21     H21    -4.2892    2.2362   -1.0702 H        1 ZINC001347442583    0.1100
22     N22    -2.9562    1.3398   -2.4397 N.am     1 ZINC001347442583   -0.7200
23     C23    -3.7742    1.4820   -3.5013 C.2      1 ZINC001347442583    0.5300
24     O24    -4.7271    2.2295   -3.4368 O.2      1 ZINC001347442583   -0.5300
25     C25    -3.5047    0.7122   -4.7686 C.3      1 ZINC001347442583   -0.1500
26     H26    -3.5143   -0.3609   -4.5780 H        1 ZINC001347442583    0.1100
27     C27    -4.5317    1.0868   -5.8717 C.3      1 ZINC001347442583   -0.1400
28     C28    -3.7015    0.8141   -7.1513 C.3      1 ZINC001347442583    0.0500
29     O29    -2.3618    1.2135   -6.8213 O.3      1 ZINC001347442583   -0.3800
30     C30    -2.1647    1.1461   -5.4006 C.3      1 ZINC001347442583    0.0700
31     C31    -2.4289    3.4531   -1.2203 C.3      1 ZINC001347442583   -0.1400
32     H32     1.3211    2.6120   -0.8866 H        1 ZINC001347442583    0.0900
33     H33     1.3381    2.6024    0.8933 H        1 ZINC001347442583    0.0900
34     H34     2.4158    0.3693    0.8710 H        1 ZINC001347442583    0.0700
35     H35     2.3988    0.3789   -0.9088 H        1 ZINC001347442583    0.0700
36     H36     3.8118    2.4166   -0.9114 H        1 ZINC001347442583    0.0600
37     H37     3.8288    2.4070    0.8685 H        1 ZINC001347442583    0.0600
38     H38     4.9065    0.1740    0.8462 H        1 ZINC001347442583    0.0700
39     H39     4.8896    0.1836   -0.9337 H        1 ZINC001347442583    0.0700
40     H40     6.3465    1.6746   -2.1821 H        1 ZINC001347442583    0.1200
41     H41     8.4621    2.9343   -2.1956 H        1 ZINC001347442583    0.1200
42     H42     9.5452    3.5446   -0.0701 H        1 ZINC001347442583    0.1200
43     H43     8.5122    2.8958    2.0689 H        1 ZINC001347442583    0.1200
44     H44     6.3941    1.6400    2.0824 H        1 ZINC001347442583    0.1200
45     H45    -1.8376    3.5641    2.1756 H        1 ZINC001347442583    0.0700
46     H46    -3.1226    4.2788    1.1492 H        1 ZINC001347442583    0.0800
47     H47    -2.9685    1.5424    2.1836 H        1 ZINC001347442583    0.0800
48     H48    -4.2534    2.2571    1.1571 H        1 ZINC001347442583    0.0800
49     H49    -2.1940    0.7420   -2.4912 H        1 ZINC001347442583    0.4000
50     H50    -5.4088    0.4411   -5.8275 H        1 ZINC001347442583    0.0900
51     H51    -4.8155    2.1370   -5.8040 H        1 ZINC001347442583    0.0900
52     H52    -3.7294   -0.2465   -7.4014 H        1 ZINC001347442583    0.0700
53     H53    -4.0801    1.4096   -7.9820 H        1 ZINC001347442583    0.0900
54     H54    -1.8798    2.1269   -5.0199 H        1 ZINC001347442583    0.0700
55     H55    -1.3872    0.4181   -5.1693 H        1 ZINC001347442583    0.0800
56     H56    -3.1112    4.2924   -1.0854 H        1 ZINC001347442583    0.0900
57     H57    -1.8637    3.5613   -2.1460 H        1 ZINC001347442583    0.0800
@<TRIPOS>BOND
1     1     2     2
2     2     3     1
3     2     13    am
4     3     4     1
5     3     32    1
6     3     33    1
7     4     5     1
8     4     34    1
9     4     35    1
10    5     6     1
11    5     36    1
12    5     37    1
13    6     7     1
14    6     38    1
15    6     39    1
16    7     12    ar
17    7     8     ar
18    8     9     ar
19    8     40    1
20    9     10    ar
21    9     41    1
22    10    11    ar
23    10    42    1
24    11    12    ar
25    11    43    1
26    12    44    1
27    13    18    1
28    13    14    1
29    14    15    1
30    14    31    1
31    14    16    1
32    16    17    1
33    16    45    1
34    16    46    1
35    17    18    1
36    17    47    1
37    17    48    1
38    18    19    1
39    18    20    1
40    20    21    1
41    20    22    1
42    20    31    1
43    22    23    am
44    22    49    1
45    23    24    2
46    23    25    1
47    25    26    1
48    25    30    1
49    25    27    1
50    27    28    1
51    27    50    1
52    27    51    1
53    28    29    1
54    28    52    1
55    28    53    1
56    29    30    1
57    30    54    1
58    30    55    1
59    31    56    1
60    31    57    1
@<TRIPOS>SUBSTRUCTURE
1   ZINC001347442583 1     RESIDUE    1   A     ZIN   1
@<TRIPOS>MOLECULE
ZINC000277311370
28	28	1	0	0
SMALL
USER_CHARGES
@<TRIPOS>ATOM
1      C1     -0.0187    1.5258    0.0104 C.3      1 ZINC000277311370   -0.1500
2      C2      0.0021   -0.0041    0.0020 C.3      1 ZINC000277311370   -0.1000
3      C3      0.7421   -0.5109    1.2415 C.3      1 ZINC000277311370   -0.1600
4      C4     -1.4333   -0.5336    0.0129 C.3      1 ZINC000277311370    0.2500
5      H5     -1.9605   -0.1726   -0.8702 H        1 ZINC000277311370    0.1400
6      C6     -2.1223   -0.0589    1.2240 C.1      1 ZINC000277311370    0.1900
7      N7     -2.6540    0.3074    2.1586 N.1      1 ZINC000277311370   -0.4100
8      N8     -1.4134   -1.9985    0.0048 N.am     1 ZINC000277311370   -0.7000
9      C9     -2.4667   -2.6841   -0.4821 C.2      1 ZINC000277311370    0.5700
10     O10    -3.4329   -2.0871   -0.9145 O.2      1 ZINC000277311370   -0.4900
11     C11    -2.4466   -4.1649   -0.4903 C.ar     1 ZINC000277311370    0.1100
12     N12    -1.3906   -4.8116   -0.0116 N.ar     1 ZINC000277311370   -0.4300
13     C13    -1.3332   -6.1261   -0.0000 C.ar     1 ZINC000277311370    0.1300
14     Br14    0.2003   -6.9863    0.6960 Br       1 ZINC000277311370    0.0200
15     C15    -2.3821   -6.8895   -0.4911 C.ar     1 ZINC000277311370   -0.1100
16     C16    -3.5036   -6.2553   -1.0000 C.ar     1 ZINC000277311370   -0.0400
17     C17    -3.5390   -4.8683   -0.9952 C.ar     1 ZINC000277311370   -0.0900
18     Br18   -5.0422   -3.9450   -1.6763 Br       1 ZINC000277311370    0.0300
19     H19     1.0039    1.9031    0.0027 H        1 ZINC000277311370    0.0700
20     H20    -0.5459    1.8868   -0.8726 H        1 ZINC000277311370    0.0700
21     H21    -0.5289    1.8773    0.9072 H        1 ZINC000277311370    0.0600
22     H22     0.5123   -0.3556   -0.8948 H        1 ZINC000277311370    0.1000
23     H23     0.2319   -0.1594    2.1383 H        1 ZINC000277311370    0.0600
24     H24     0.7568   -1.6008    1.2356 H        1 ZINC000277311370    0.0600
25     H25     1.7647   -0.1336    1.2338 H        1 ZINC000277311370    0.0700
26     H26    -0.6422   -2.4750    0.3499 H        1 ZINC000277311370    0.4200
27     H27    -2.3249   -7.9678   -0.4770 H        1 ZINC000277311370    0.1600
28     H28    -4.3333   -6.8276   -1.3880 H        1 ZINC000277311370    0.1700
@<TRIPOS>BOND
1     1     2     1
2     1     19    1
3     1     20    1
4     1     21    1
5     2     3     1
6     2     4     1
7     2     22    1
8     3     23    1
9     3     24    1
10    3     25    1
11    4     5     1
12    4     6     1
13    4     8     1
14    6     7     3
15    8     9     am
16    8     26    1
17    9     10    2
18    9     11    1
19    11    17    ar
20    11    12    ar
21    12    13    ar
22    13    14    1
23    13    15    ar
24    15    16    ar
25    15    27    1
26    16    17    ar
27    16    28    1
28    17    18    1
@<TRIPOS>SUBSTRUCTURE
1   ZINC000277311370 1     RESIDUE    1   A     ZIN   1
@<TRIPOS>MOLECULE
ZINC000918875053
44	47	1	0	0
SMALL
USER_CHARGES
@<TRIPOS>ATOM
1      C1     -0.0187    1.5258    0.0104 C.3      1 ZINC000918875053   -0.1700
2      C2      0.0021   -0.0041    0.0020 C.3      1 ZINC000918875053    0.1900
3      H3      0.5123   -0.3556   -0.8948 H        1 ZINC000918875053    0.1400
4      O4      0.7043   -0.4851    1.1784 O.3      1 ZINC000918875053   -0.3400
5      C5      2.0290   -0.6696    1.0643 C.2      1 ZINC000918875053    0.4800
6      O6      2.5833   -0.4370    0.0162 O.2      1 ZINC000918875053   -0.4900
7      C7      2.8248   -1.1670    2.2434 C.3      1 ZINC000918875053   -0.0900
8      H8      2.7328   -0.4854    3.0890 H        1 ZINC000918875053    0.1400
9      C9      2.3939   -2.5988    2.6375 C.3      1 ZINC000918875053   -0.1400
10     C10     3.6836   -3.2746    3.0479 C.2      1 ZINC000918875053    0.5300
11     O11     3.7563   -4.3049    3.6838 O.2      1 ZINC000918875053   -0.5000
12     N12     4.7374   -2.5674    2.6050 N.am     1 ZINC000918875053   -0.5800
13     C13     6.0747   -2.9201    2.8254 C.ar     1 ZINC000918875053    0.1000
14     C14     6.7401   -3.7280    1.9142 C.ar     1 ZINC000918875053   -0.0800
15     C15     8.0597   -4.0741    2.1339 C.ar     1 ZINC000918875053   -0.1200
16     C16     8.7183   -3.6172    3.2602 C.ar     1 ZINC000918875053   -0.0800
17     C17     8.0595   -2.8117    4.1714 C.ar     1 ZINC000918875053   -0.1500
18     C18     6.7408   -2.4567    3.9551 C.ar     1 ZINC000918875053    0.1100
19     F19     6.0973   -1.6696    4.8447 F        1 ZINC000918875053   -0.1300
20     C20     4.3067   -1.3770    1.8612 C.3      1 ZINC000918875053    0.1200
21     C21    -1.4117   -0.5257    0.0127 C.2      1 ZINC000918875053    0.1800
22     N22    -2.0580   -1.0511   -1.0001 N.2      1 ZINC000918875053   -0.4600
23     C23    -3.2759   -1.3695   -0.5266 C.2      1 ZINC000918875053    0.2100
24     C24    -4.3975   -2.0060   -1.3062 C.3      1 ZINC000918875053   -0.0900
25     C25    -5.6290   -2.4668   -0.5239 C.3      1 ZINC000918875053   -0.1600
26     C26    -5.7102   -1.2281   -1.4183 C.3      1 ZINC000918875053   -0.1500
27     N27    -3.3076   -1.0278    0.7267 N.2      1 ZINC000918875053   -0.3700
28     O28    -2.2445   -0.5465    1.0577 O.3      1 ZINC000918875053    0.1000
29     H29     1.0039    1.9031    0.0027 H        1 ZINC000918875053    0.0900
30     H30    -0.5459    1.8868   -0.8726 H        1 ZINC000918875053    0.0900
31     H31    -0.5289    1.8773    0.9072 H        1 ZINC000918875053    0.0800
32     H32     1.6952   -2.5704    3.4736 H        1 ZINC000918875053    0.1300
33     H33     1.9491   -3.1117    1.7847 H        1 ZINC000918875053    0.1100
34     H34     6.2268   -4.0864    1.0341 H        1 ZINC000918875053    0.1400
35     H35     8.5774   -4.7029    1.4246 H        1 ZINC000918875053    0.1400
36     H36     9.7494   -3.8901    3.4292 H        1 ZINC000918875053    0.1400
37     H37     8.5768   -2.4564    5.0503 H        1 ZINC000918875053    0.1400
38     H38     4.3984   -1.5487    0.7887 H        1 ZINC000918875053    0.1000
39     H39     4.9000   -0.5120    2.1575 H        1 ZINC000918875053    0.1000
40     H40    -4.0927   -2.6052   -2.1642 H        1 ZINC000918875053    0.1400
41     H41    -6.1346   -3.3694   -0.8670 H        1 ZINC000918875053    0.1100
42     H42    -5.6279   -2.3095    0.5547 H        1 ZINC000918875053    0.1000
43     H43    -5.7625   -0.2559   -0.9282 H        1 ZINC000918875053    0.1000
44     H44    -6.2692   -1.3159   -2.3499 H        1 ZINC000918875053    0.1100
@<TRIPOS>BOND
1     1     2     1
2     1     29    1
3     1     30    1
4     1     31    1
5     2     3     1
6     2     4     1
7     2     21    1
8     4     5     1
9     5     6     2
10    5     7     1
11    7     8     1
12    7     20    1
13    7     9     1
14    9     10    1
15    9     32    1
16    9     33    1
17    10    11    2
18    10    12    am
19    12    13    1
20    12    20    1
21    13    18    ar
22    13    14    ar
23    14    15    ar
24    14    34    1
25    15    16    ar
26    15    35    1
27    16    17    ar
28    16    36    1
29    17    18    ar
30    17    37    1
31    18    19    1
32    20    38    1
33    20    39    1
34    21    28    1
35    21    22    2
36    22    23    1
37    23    24    1
38    23    27    2
39    24    26    1
40    24    25    1
41    24    40    1
42    25    26    1
43    25    41    1
44    25    42    1
45    26    43    1
46    26    44    1
47    27    28    1
@<TRIPOS>SUBSTRUCTURE
1   ZINC000918875053 1     RESIDUE    1   A     ZIN   1
@<TRIPOS>MOLECULE
ZINC000569288350
26	27	1	0	0
SMALL
USER_CHARGES
@<TRIPOS>ATOM
1      O1      0.0028   -0.0045    0.0001 O.2      1 ZINC000569288350   -0.4800
2      C2     -0.0142    1.2113    0.0028 C.2      1 ZINC000569288350    0.5700
3      N3      1.1435    1.9014    0.0014 N.am     1 ZINC000569288350   -0.6600
4      C4      2.3631    1.2218    0.0917 C.ar     1 ZINC000569288350    0.1800
5      C5      2.5125   -0.0217   -0.5077 C.ar     1 ZINC000569288350   -0.1200
6      C6      3.7175   -0.6915   -0.4176 C.ar     1 ZINC000569288350   -0.0600
7      C7      4.7755   -0.1260    0.2691 C.ar     1 ZINC000569288350   -0.1500
8      C8      4.6318    1.1143    0.8689 C.ar     1 ZINC000569288350    0.1300
9      F9      5.6678    1.6647    1.5389 F        1 ZINC000569288350   -0.1200
10     C10     3.4289    1.7926    0.7766 C.ar     1 ZINC000569288350   -0.1000
11     Cl11    3.2476    3.3473    1.5273 Cl       1 ZINC000569288350   -0.0400
12     C12    -1.3028    1.9315    0.0016 C.ar     1 ZINC000569288350   -0.1400
13     C13    -1.9165    2.2721   -1.2081 C.ar     1 ZINC000569288350    0.1400
14     F14    -1.3322    1.9426   -2.3808 F        1 ZINC000569288350   -0.1200
15     C15    -3.1237    2.9469   -1.1999 C.ar     1 ZINC000569288350   -0.1300
16     C16    -3.7221    3.2843   -0.0004 C.ar     1 ZINC000569288350   -0.0600
17     C17    -3.1194    2.9504    1.2002 C.ar     1 ZINC000569288350   -0.0900
18     C18    -1.9187    2.2715    1.2090 C.ar     1 ZINC000569288350   -0.0500
19     I19    -1.0105    1.7683    3.0287 I        1 ZINC000569288350    0.0000
20     H20     1.1311    2.8692   -0.0623 H        1 ZINC000569288350    0.4200
21     H21     1.6867   -0.4655   -1.0441 H        1 ZINC000569288350    0.1600
22     H22     3.8329   -1.6587   -0.8841 H        1 ZINC000569288350    0.1500
23     H23     5.7160   -0.6524    0.3384 H        1 ZINC000569288350    0.1500
24     H24    -3.5997    3.2110   -2.1327 H        1 ZINC000569288350    0.1500
25     H25    -4.6646    3.8115    0.0001 H        1 ZINC000569288350    0.1500
26     H26    -3.5933    3.2179    2.1331 H        1 ZINC000569288350    0.1500
@<TRIPOS>BOND
1     1     2     2
2     2     3     am
3     2     12    1
4     3     4     1
5     3     20    1
6     4     10    ar
7     4     5     ar
8     5     6     ar
9     5     21    1
10    6     7     ar
11    6     22    1
12    7     8     ar
13    7     23    1
14    8     9     1
15    8     10    ar
16    10    11    1
17    12    18    ar
18    12    13    ar
19    13    14    1
20    13    15    ar
21    15    16    ar
22    15    24    1
23    16    17    ar
24    16    25    1
25    17    18    ar
26    17    26    1
27    18    19    1
@<TRIPOS>SUBSTRUCTURE
1   ZINC000569288350 1     RESIDUE    1   A     ZIN   1
@<TRIPOS>MOLECULE
ZINC000948289723
49	52	1	0	0
SMALL
USER_CHARGES
@<TRIPOS>ATOM
1      C1     -0.0187    1.5258    0.0104 C.3      1 ZINC000948289723   -0.1400
2      C2      0.0021   -0.0041    0.0020 C.3      1 ZINC000948289723   -0.1100
3      C3      1.1200   -0.6002   -0.8696 C.3      1 ZINC000948289723   -0.1100
4      C4      1.3152   -1.6501    0.2370 C.3      1 ZINC000948289723   -0.1400
5      C5      2.7605   -1.9804    0.5075 C.2      1 ZINC000948289723    0.5400
6      O6      3.6369   -1.4314   -0.1261 O.2      1 ZINC000948289723   -0.5300
7      N7      3.0791   -2.8859    1.4535 N.am     1 ZINC000948289723   -0.6200
8      C8      4.4418   -3.2963    1.8224 C.3      1 ZINC000948289723    0.1100
9      C9      4.3167   -4.3269    2.9642 C.3      1 ZINC000948289723   -0.1100
10     H10     4.3532   -5.3433    2.5721 H        1 ZINC000948289723    0.1000
11     C11     5.4130   -4.1125    4.0097 C.3      1 ZINC000948289723   -0.1400
12     C12     2.9174   -4.0181    3.5593 C.3      1 ZINC000948289723    0.1400
13     H13     2.9664   -3.1856    4.2611 H        1 ZINC000948289723    0.1200
14     N14     2.3442   -5.2059    4.1971 N.am     1 ZINC000948289723   -0.7100
15     C15     1.4277   -5.0693    5.1757 C.2      1 ZINC000948289723    0.6100
16     O16     1.0765   -3.9603    5.5292 O.2      1 ZINC000948289723   -0.5000
17     C17     0.8505   -6.2653    5.8179 C.2      1 ZINC000948289723   -0.0900
18     C18    -0.0870   -6.2922    6.8141 C.2      1 ZINC000948289723   -0.1400
19     C19    -0.2833   -7.6700    7.0564 C.2      1 ZINC000948289723    0.0500
20     C20    -1.2200   -8.2826    8.0656 C.3      1 ZINC000948289723   -0.0900
21     C21    -2.3152   -7.3867    8.6477 C.3      1 ZINC000948289723   -0.1600
22     C22    -2.6773   -8.4845    7.6454 C.3      1 ZINC000948289723   -0.1600
23     N23     0.5024   -8.3069    6.2377 N.2      1 ZINC000948289723   -0.3300
24     O24     1.1355   -7.5511    5.5382 O.3      1 ZINC000948289723    0.1200
25     C25     2.1191   -3.6243    2.2941 C.3      1 ZINC000948289723    0.0900
26     C26     0.7265   -0.6170    1.2121 C.3      1 ZINC000948289723   -0.1200
27     H27     1.0039    1.9031    0.0027 H        1 ZINC000948289723    0.0600
28     H28    -0.5459    1.8868   -0.8726 H        1 ZINC000948289723    0.0600
29     H29    -0.5289    1.8773    0.9072 H        1 ZINC000948289723    0.0600
30     H30    -0.9793   -0.4397   -0.1860 H        1 ZINC000948289723    0.0900
31     H31     0.7635   -1.0189   -1.8108 H        1 ZINC000948289723    0.0700
32     H32     1.9750    0.0637   -0.9974 H        1 ZINC000948289723    0.1000
33     H33     0.6946   -2.5373    0.1115 H        1 ZINC000948289723    0.1100
34     H34     4.9369   -3.7516    0.9647 H        1 ZINC000948289723    0.0800
35     H35     5.0097   -2.4311    2.1646 H        1 ZINC000948289723    0.0800
36     H36     5.3403   -3.1014    4.4102 H        1 ZINC000948289723    0.0600
37     H37     5.2902   -4.8333    4.8181 H        1 ZINC000948289723    0.0600
38     H38     6.3896   -4.2500    3.5455 H        1 ZINC000948289723    0.0700
39     H39     2.6244   -6.0907    3.9150 H        1 ZINC000948289723    0.4100
40     H40    -0.5650   -5.4555    7.3017 H        1 ZINC000948289723    0.1800
41     H41    -0.7779   -9.0302    8.7242 H        1 ZINC000948289723    0.1300
42     H42    -2.5938   -7.5447    9.6896 H        1 ZINC000948289723    0.1100
43     H43    -2.3582   -6.3543    8.3008 H        1 ZINC000948289723    0.1000
44     H44    -2.9584   -8.1743    6.6390 H        1 ZINC000948289723    0.1000
45     H45    -3.1940   -9.3647    8.0278 H        1 ZINC000948289723    0.1100
46     H46     1.2753   -2.9879    2.5608 H        1 ZINC000948289723    0.0900
47     H47     1.7727   -4.5158    1.7714 H        1 ZINC000948289723    0.0800
48     H48     1.4739    0.0423    1.6535 H        1 ZINC000948289723    0.0900
49     H49     0.0524   -1.0492    1.9516 H        1 ZINC000948289723    0.0800
@<TRIPOS>BOND
1     1     2     1
2     1     27    1
3     1     28    1
4     1     29    1
5     2     26    1
6     2     3     1
7     2     30    1
8     3     4     1
9     3     31    1
10    3     32    1
11    4     5     1
12    4     26    1
13    4     33    1
14    5     6     2
15    5     7     am
16    7     25    1
17    7     8     1
18    8     9     1
19    8     34    1
20    8     35    1
21    9     10    1
22    9     11    1
23    9     12    1
24    11    36    1
25    11    37    1
26    11    38    1
27    12    13    1
28    12    14    1
29    12    25    1
30    14    15    am
31    14    39    1
32    15    16    2
33    15    17    1
34    17    24    1
35    17    18    2
36    18    19    1
37    18    40    1
38    19    20    1
39    19    23    2
40    20    22    1
41    20    21    1
42    20    41    1
43    21    22    1
44    21    42    1
45    21    43    1
46    22    44    1
47    22    45    1
48    23    24    1
49    25    46    1
50    25    47    1
51    26    48    1
52    26    49    1
@<TRIPOS>SUBSTRUCTURE
1   ZINC000948289723 1     RESIDUE    1   A     ZIN   1
@<TRIPOS>MOLECULE
ZINC000341804698
41	42	1	0	0
SMALL
USER_CHARGES
@<TRIPOS>ATOM
1      C1     -1.3874    1.7157   -0.9476 C.3      1 ZINC000341804698    0.0300
2      O2     -1.0433    0.3381   -0.7866 O.3      1 ZINC000341804698   -0.3900
3      C3     -0.3890   -0.2340   -1.9209 C.3      1 ZINC000341804698    0.0700
4      C4     -0.0693   -1.7032   -1.6379 C.3      1 ZINC000341804698    0.0400
5      C5      0.8142   -1.7956   -0.4641 C.1      1 ZINC000341804698    0.2200
6      N6      1.4959   -1.8669    0.4417 N.1      1 ZINC000341804698   -0.4200
7      C7     -1.3681   -2.4631   -1.3593 C.3      1 ZINC000341804698   -0.1200
8      C8     -1.0413   -3.9259   -1.0425 C.3      1 ZINC000341804698    0.1100
9      N9     -0.2417   -4.4809   -2.1431 N.am     1 ZINC000341804698   -0.6000
10     C10    -0.6228   -5.6141   -2.7652 C.2      1 ZINC000341804698    0.5700
11     O11    -1.5979   -6.2245   -2.3726 O.2      1 ZINC000341804698   -0.5200
12     C12     0.1452   -6.1149   -3.9251 C.ar     1 ZINC000341804698   -0.0900
13     C13     1.5306   -6.2594   -3.8381 C.ar     1 ZINC000341804698   -0.1100
14     C14     2.2444   -6.7270   -4.9227 C.ar     1 ZINC000341804698   -0.0800
15     C15     1.5915   -7.0533   -6.0967 C.ar     1 ZINC000341804698   -0.1700
16     C16     0.2135   -6.9124   -6.1929 C.ar     1 ZINC000341804698    0.1100
17     O17    -0.4232   -7.2343   -7.3497 O.3      1 ZINC000341804698   -0.3100
18     C18     0.3877   -7.7112   -8.4255 C.3      1 ZINC000341804698    0.6000
19     F19     1.0542   -8.8748   -8.0268 F        1 ZINC000341804698   -0.1600
20     F20    -0.4224   -7.9931   -9.5306 F        1 ZINC000341804698   -0.1300
21     F21     1.3252   -6.7324   -8.7721 F        1 ZINC000341804698   -0.1600
22     C22    -0.5131   -6.4501   -5.1088 C.ar     1 ZINC000341804698   -0.0700
23     C23     0.9809   -3.7767   -2.5530 C.3      1 ZINC000341804698    0.0900
24     C24     0.6314   -2.3157   -2.8529 C.3      1 ZINC000341804698   -0.1200
25     H25    -0.4831    2.2978   -1.1248 H        1 ZINC000341804698    0.0400
26     H26    -2.0619    1.8248   -1.7969 H        1 ZINC000341804698    0.0500
27     H27    -1.8798    2.0752   -0.0441 H        1 ZINC000341804698    0.0900
28     H28    -1.0428   -0.1653   -2.7903 H        1 ZINC000341804698    0.0700
29     H29     0.5361    0.3077   -2.1182 H        1 ZINC000341804698    0.0600
30     H30    -1.8782   -2.0118   -0.5083 H        1 ZINC000341804698    0.1000
31     H31    -2.0126   -2.4162   -2.2371 H        1 ZINC000341804698    0.0900
32     H32    -0.4727   -3.9805   -0.1141 H        1 ZINC000341804698    0.0700
33     H33    -1.9664   -4.4932   -0.9407 H        1 ZINC000341804698    0.1100
34     H34     2.0439   -6.0051   -2.9225 H        1 ZINC000341804698    0.1400
35     H35     3.3165   -6.8381   -4.8542 H        1 ZINC000341804698    0.1400
36     H36     2.1552   -7.4188   -6.9423 H        1 ZINC000341804698    0.1400
37     H37    -1.5850   -6.3404   -5.1821 H        1 ZINC000341804698    0.1500
38     H38     1.7144   -3.8192   -1.7478 H        1 ZINC000341804698    0.0800
39     H39     1.3901   -4.2456   -3.4479 H        1 ZINC000341804698    0.1100
40     H40    -0.0319   -2.2701   -3.7166 H        1 ZINC000341804698    0.1000
41     H41     1.5445   -1.7593   -3.0650 H        1 ZINC000341804698    0.0900
@<TRIPOS>BOND
1     1     2     1
2     1     25    1
3     1     26    1
4     1     27    1
5     2     3     1
6     3     4     1
7     3     28    1
8     3     29    1
9     4     24    1
10    4     5     1
11    4     7     1
12    5     6     3
13    7     8     1
14    7     30    1
15    7     31    1
16    8     9     1
17    8     32    1
18    8     33    1
19    9     10    am
20    9     23    1
21    10    11    2
22    10    12    1
23    12    22    ar
24    12    13    ar
25    13    14    ar
26    13    34    1
27    14    15    ar
28    14    35    1
29    15    16    ar
30    15    36    1
31    16    17    1
32    16    22    ar
33    17    18    1
34    18    19    1
35    18    20    1
36    18    21    1
37    22    37    1
38    23    24    1
39    23    38    1
40    23    39    1
41    24    40    1
42    24    41    1
@<TRIPOS>SUBSTRUCTURE
1   ZINC000341804698 1     RESIDUE    1   A     ZIN   1
@<TRIPOS>MOLECULE
ZINC000863246516
49	52	1	0	0
SMALL
USER_CHARGES
@<TRIPOS>ATOM
1      C1     -0.0184    1.5028    0.0103 C.3      1 ZINC000863246516   -0.0600
2      C2      0.0021   -0.0041    0.0020 C.2      1 ZINC000863246516   -0.2000
3      C3     -1.0409   -0.8224    0.0022 C.2      1 ZINC000863246516    0.0900
4      C4     -2.4548   -0.3011    0.0113 C.3      1 ZINC000863246516   -0.1000
5      N5     -0.7713   -2.1585   -0.0067 N.am     1 ZINC000863246516   -0.5300
6      C6     -1.8464   -3.1537   -0.0079 C.3      1 ZINC000863246516    0.1200
7      C7     -2.2268   -3.4917   -1.4508 C.3      1 ZINC000863246516   -0.1500
8      C8     -3.3328   -4.5154   -1.4520 C.2      1 ZINC000863246516    0.5400
9      O9     -3.7733   -4.9335   -0.4022 O.2      1 ZINC000863246516   -0.5300
10     N10    -3.8323   -4.9664   -2.6197 N.am     1 ZINC000863246516   -0.6100
11     C11    -3.3842   -4.5473   -3.9526 C.3      1 ZINC000863246516    0.1100
12     C12    -3.8781   -5.6186   -4.9434 C.3      1 ZINC000863246516   -0.1300
13     H13    -3.1230   -6.3305   -5.2764 H        1 ZINC000863246516    0.1000
14     C14    -4.8104   -5.0532   -6.0277 C.3      1 ZINC000863246516   -0.1200
15     C15    -5.9273   -5.0630   -4.9716 C.3      1 ZINC000863246516   -0.0600
16     H16    -5.9873   -4.1418   -4.3920 H        1 ZINC000863246516    0.1000
17     C17    -7.2640   -5.5017   -5.5120 C.ar     1 ZINC000863246516   -0.0700
18     C18    -7.3366   -6.5537   -6.4058 C.ar     1 ZINC000863246516   -0.1200
19     C19    -8.5627   -6.9560   -6.9015 C.ar     1 ZINC000863246516   -0.1200
20     C20    -9.7162   -6.3067   -6.5031 C.ar     1 ZINC000863246516   -0.1200
21     C21    -9.6436   -5.2553   -5.6085 C.ar     1 ZINC000863246516   -0.1200
22     C22    -8.4179   -4.8557   -5.1095 C.ar     1 ZINC000863246516   -0.1200
23     C23    -5.1398   -6.1974   -4.2558 C.3      1 ZINC000863246516   -0.1100
24     H24    -5.4218   -7.2150   -4.5260 H        1 ZINC000863246516    0.1200
25     C25    -4.9045   -5.9575   -2.7571 C.3      1 ZINC000863246516    0.1200
26     C26     0.5202   -2.5247   -0.0149 C.2      1 ZINC000863246516    0.4800
27     O27     0.9613   -3.6603   -0.0234 O.2      1 ZINC000863246516   -0.4700
28     S28     1.4255   -1.0597   -0.0178 S.3      1 ZINC000863246516    0.0100
29     H29     1.0042    1.8801    0.0026 H        1 ZINC000863246516    0.0700
30     H30    -0.5455    1.8639   -0.8728 H        1 ZINC000863246516    0.0800
31     H31    -0.5286    1.8543    0.9071 H        1 ZINC000863246516    0.0800
32     H32    -2.4402    0.7888    0.0176 H        1 ZINC000863246516    0.0900
33     H33    -2.9773   -0.6523   -0.8785 H        1 ZINC000863246516    0.0800
34     H34    -2.9697   -0.6627    0.9014 H        1 ZINC000863246516    0.0800
35     H35    -1.5062   -4.0566    0.4992 H        1 ZINC000863246516    0.1000
36     H36    -2.7153   -2.7504    0.5120 H        1 ZINC000863246516    0.1000
37     H37    -2.5670   -2.5888   -1.9579 H        1 ZINC000863246516    0.1000
38     H38    -1.3578   -3.8950   -1.9707 H        1 ZINC000863246516    0.1000
39     H39    -3.8168   -3.5789   -4.2042 H        1 ZINC000863246516    0.0700
40     H40    -2.2961   -4.4884   -3.9789 H        1 ZINC000863246516    0.0800
41     H41    -4.5348   -4.0528   -6.3613 H        1 ZINC000863246516    0.0800
42     H42    -4.9859   -5.7419   -6.8541 H        1 ZINC000863246516    0.0900
43     H43    -6.4355   -7.0610   -6.7171 H        1 ZINC000863246516    0.1200
44     H44    -8.6194   -7.7775   -7.6004 H        1 ZINC000863246516    0.1200
45     H45   -10.6740   -6.6206   -6.8909 H        1 ZINC000863246516    0.1200
46     H46   -10.5447   -4.7477   -5.2975 H        1 ZINC000863246516    0.1200
47     H47    -8.3612   -4.0342   -4.4107 H        1 ZINC000863246516    0.1200
48     H48    -4.6250   -6.8935   -2.2734 H        1 ZINC000863246516    0.0700
49     H49    -5.8120   -5.5630   -2.3000 H        1 ZINC000863246516    0.0700
@<TRIPOS>BOND
1     1     2     1
2     1     29    1
3     1     30    1
4     1     31    1
5     2     28    1
6     2     3     2
7     3     4     1
8     3     5     1
9     4     32    1
10    4     33    1
11    4     34    1
12    5     6     1
13    5     26    am
14    6     7     1
15    6     35    1
16    6     36    1
17    7     8     1
18    7     37    1
19    7     38    1
20    8     9     2
21    8     10    am
22    10    25    1
23    10    11    1
24    11    12    1
25    11    39    1
26    11    40    1
27    12    13    1
28    12    23    1
29    12    14    1
30    14    15    1
31    14    41    1
32    14    42    1
33    15    16    1
34    15    17    1
35    15    23    1
36    17    22    ar
37    17    18    ar
38    18    19    ar
39    18    43    1
40    19    20    ar
41    19    44    1
42    20    21    ar
43    20    45    1
44    21    22    ar
45    21    46    1
46    22    47    1
47    23    24    1
48    23    25    1
49    25    48    1
50    25    49    1
51    26    27    2
52    26    28    1
@<TRIPOS>SUBSTRUCTURE
1   ZINC000863246516 1     RESIDUE    1   A     ZIN   1
@<TRIPOS>MOLECULE
ZINC000487792031
59	60	1	0	0
SMALL
USER_CHARGES
@<TRIPOS>ATOM
1      C1     -0.0157    1.3058    0.0092 C.2      1 ZINC000487792031   -0.1900
2      C2      0.0021   -0.0041    0.0020 C.2      1 ZINC000487792031   -0.1500
3      C3     -1.2926   -0.7753    0.0102 C.3      1 ZINC000487792031   -0.0900
4      C4     -1.3187   -1.7407   -1.1764 C.3      1 ZINC000487792031   -0.0900
5      C5     -2.6332   -2.5237   -1.1680 C.3      1 ZINC000487792031   -0.0700
6      H6     -3.4712   -1.8267   -1.1563 H        1 ZINC000487792031    0.1100
7      C7     -2.7130   -3.3845   -2.4024 C.2      1 ZINC000487792031    0.5200
8      O8     -1.8077   -3.3728   -3.2094 O.2      1 ZINC000487792031   -0.5300
9      N9     -3.7904   -4.1672   -2.6097 N.am     1 ZINC000487792031   -0.7200
10     C10    -3.8680   -5.0040   -3.8096 C.3      1 ZINC000487792031    0.1500
11     C11    -5.1627   -5.7752   -3.8014 C.ar     1 ZINC000487792031   -0.0500
12     C12    -5.2217   -7.0204   -3.2040 C.ar     1 ZINC000487792031   -0.1200
13     C13    -6.4093   -7.7278   -3.1965 C.ar     1 ZINC000487792031   -0.0200
14     C14    -7.5381   -7.1898   -3.7859 C.ar     1 ZINC000487792031   -0.6700
15     S15    -9.0517   -8.0917   -3.7768 S.o2     1 ZINC000487792031    2.6900
16     O16    -9.8189   -7.5991   -4.8668 O.2      1 ZINC000487792031   -0.9500
17     O17    -8.7020   -9.4610   -3.6286 O.2      1 ZINC000487792031   -0.9500
18     N18    -9.8678   -7.6658   -2.4003 N.am     1 ZINC000487792031   -1.0000
19     C19   -10.7957   -6.5323   -2.4199 C.3      1 ZINC000487792031    0.1200
20     C20   -12.2172   -7.0412   -2.6675 C.3      1 ZINC000487792031   -0.1800
21     C21    -9.6618   -8.4226   -1.1629 C.3      1 ZINC000487792031    0.1100
22     C22    -8.5990   -7.7265   -0.3103 C.3      1 ZINC000487792031   -0.1800
23     C23    -7.4794   -5.9440   -4.3822 C.ar     1 ZINC000487792031   -0.0200
24     C24    -6.2927   -5.2349   -4.3863 C.ar     1 ZINC000487792031   -0.1200
25     C25    -2.6895   -3.3977    0.0583 C.ar     1 ZINC000487792031   -0.0800
26     C26    -1.7201   -4.3612    0.2655 C.ar     1 ZINC000487792031   -0.1100
27     C27    -1.7718   -5.1629    1.3905 C.ar     1 ZINC000487792031   -0.1100
28     C28    -2.7926   -5.0008    2.3084 C.ar     1 ZINC000487792031   -0.1200
29     C29    -3.7614   -4.0367    2.1017 C.ar     1 ZINC000487792031   -0.1200
30     C30    -3.7073   -3.2321    0.9789 C.ar     1 ZINC000487792031   -0.1100
31     H31     0.9122    1.8585    0.0033 H        1 ZINC000487792031    0.1000
32     H32    -0.9582    1.8330    0.0166 H        1 ZINC000487792031    0.1000
33     H33     0.9446   -0.5313   -0.0098 H        1 ZINC000487792031    0.1100
34     H34    -1.3737   -1.3393    0.9394 H        1 ZINC000487792031    0.0700
35     H35    -2.1295   -0.0812   -0.0676 H        1 ZINC000487792031    0.0700
36     H36    -1.2377   -1.1767   -2.1056 H        1 ZINC000487792031    0.0800
37     H37    -0.4819   -2.4348   -1.0985 H        1 ZINC000487792031    0.0700
38     H38    -4.5145   -4.1765   -1.9643 H        1 ZINC000487792031    0.4000
39     H39    -3.8273   -4.3718   -4.6967 H        1 ZINC000487792031    0.0800
40     H40    -3.0300   -5.7009   -3.8214 H        1 ZINC000487792031    0.0800
41     H41    -4.3399   -7.4407   -2.7434 H        1 ZINC000487792031    0.1400
42     H42    -6.4553   -8.7009   -2.7303 H        1 ZINC000487792031    0.1400
43     H43   -10.7570   -6.0144   -1.4616 H        1 ZINC000487792031    0.0800
44     H44   -10.5122   -5.8444   -3.2164 H        1 ZINC000487792031    0.0800
45     H45   -12.2560   -7.5591   -3.6258 H        1 ZINC000487792031    0.0600
46     H46   -12.5008   -7.7291   -1.8710 H        1 ZINC000487792031    0.0600
47     H47   -12.9076   -6.1979   -2.6821 H        1 ZINC000487792031    0.0700
48     H48   -10.5982   -8.4721   -0.6071 H        1 ZINC000487792031    0.0900
49     H49    -9.3294   -9.4319   -1.4053 H        1 ZINC000487792031    0.0900
50     H50    -7.6626   -7.6770   -0.8661 H        1 ZINC000487792031    0.0600
51     H51    -8.9314   -6.7172   -0.0679 H        1 ZINC000487792031    0.0600
52     H52    -8.4458   -8.2896    0.6103 H        1 ZINC000487792031    0.0700
53     H53    -8.3613   -5.5235   -4.8424 H        1 ZINC000487792031    0.1400
54     H54    -6.2469   -4.2616   -4.8522 H        1 ZINC000487792031    0.1400
55     H55    -0.9227   -4.4878   -0.4517 H        1 ZINC000487792031    0.1200
56     H56    -1.0149   -5.9161    1.5520 H        1 ZINC000487792031    0.1200
57     H57    -2.8333   -5.6276    3.1870 H        1 ZINC000487792031    0.1200
58     H58    -4.5591   -3.9103    2.8187 H        1 ZINC000487792031    0.1200
59     H59    -4.4643   -2.4788    0.8174 H        1 ZINC000487792031    0.1200
@<TRIPOS>BOND
1     1     2     2
2     1     31    1
3     1     32    1
4     2     3     1
5     2     33    1
6     3     4     1
7     3     34    1
8     3     35    1
9     4     5     1
10    4     36    1
11    4     37    1
12    5     6     1
13    5     7     1
14    5     25    1
15    7     8     2
16    7     9     am
17    9     10    1
18    9     38    1
19    10    11    1
20    10    39    1
21    10    40    1
22    11    24    ar
23    11    12    ar
24    12    13    ar
25    12    41    1
26    13    14    ar
27    13    42    1
28    14    15    1
29    14    23    ar
30    15    16    2
31    15    17    2
32    15    18    am
33    18    19    1
34    18    21    1
35    19    20    1
36    19    43    1
37    19    44    1
38    20    45    1
39    20    46    1
40    20    47    1
41    21    22    1
42    21    48    1
43    21    49    1
44    22    50    1
45    22    51    1
46    22    52    1
47    23    24    ar
48    23    53    1
49    24    54    1
50    25    30    ar
51    25    26    ar
52    26    27    ar
53    26    55    1
54    27    28    ar
55    27    56    1
56    28    29    ar
57    28    57    1
58    29    30    ar
59    29    58    1
60    30    59    1
@<TRIPOS>SUBSTRUCTURE
1   ZINC000487792031 1     RESIDUE    1   A     ZIN   1
@<TRIPOS>MOLECULE
ZINC000150894060
49	51	1	0	0
SMALL
USER_CHARGES
@<TRIPOS>ATOM
1      C1     -0.0184    1.5028    0.0103 C.3      1 ZINC000150894060   -0.1000
2      C2      0.0021   -0.0041    0.0020 C.2      1 ZINC000150894060   -0.0800
3      C3      0.0082   -0.8130   -1.0980 C.2      1 ZINC000150894060   -0.1000
4      C4     -0.0048   -0.3677   -2.4953 C.2      1 ZINC000150894060    0.6100
5      O5     -0.0228    0.8211   -2.7549 O.2      1 ZINC000150894060   -0.5100
6      N6      0.0032   -1.2750   -3.4918 N.am     1 ZINC000150894060   -0.7200
7      C7     -0.0098   -0.8302   -4.8876 C.3      1 ZINC000150894060    0.1200
8      C8      0.0030   -2.0496   -5.8116 C.3      1 ZINC000150894060   -0.1500
9      C9     -0.0106   -1.5850   -7.2693 C.3      1 ZINC000150894060    0.1200
10     N10     0.0016   -2.7526   -8.1541 N.am     1 ZINC000150894060   -0.7300
11     C11    -0.0072   -2.5849   -9.4913 C.2      1 ZINC000150894060    0.5600
12     O12    -0.0252   -1.4649   -9.9633 O.2      1 ZINC000150894060   -0.5300
13     C13     0.0052   -3.7632  -10.3842 C.ar     1 ZINC000150894060   -0.1300
14     C14     0.0201   -5.0507   -9.8455 C.ar     1 ZINC000150894060   -0.0900
15     C15     0.0310   -6.1460  -10.6843 C.ar     1 ZINC000150894060   -0.0900
16     C16     0.0277   -5.9703  -12.0567 C.ar     1 ZINC000150894060   -0.0800
17     C17     0.0403   -7.1713  -12.9668 C.3      1 ZINC000150894060    0.1700
18     N18    -1.3368   -7.5759  -13.2604 N.pl3    1 ZINC000150894060   -0.3700
19     C19    -1.8747   -7.7286  -14.4886 C.2      1 ZINC000150894060    0.0500
20     C20    -3.1635   -8.1093  -14.3300 C.2      1 ZINC000150894060   -0.2700
21     C21    -3.4220   -8.1922  -12.9579 C.2      1 ZINC000150894060    0.0400
22     N22    -2.3260   -7.8786  -12.3158 N.2      1 ZINC000150894060   -0.2900
23     C23     0.0125   -4.6967  -12.5971 C.ar     1 ZINC000150894060   -0.1100
24     C24    -0.0039   -3.5930  -11.7696 C.ar     1 ZINC000150894060   -0.0600
25     O25     0.0283   -2.0937   -0.6742 O.3      1 ZINC000150894060   -0.1700
26     C26     0.0351   -2.1188    0.6648 C.2      1 ZINC000150894060    0.0000
27     C27     0.0247   -0.8478    1.1235 C.2      1 ZINC000150894060   -0.2300
28     H28     1.0042    1.8801    0.0026 H        1 ZINC000150894060    0.0800
29     H29    -0.5455    1.8639   -0.8728 H        1 ZINC000150894060    0.0900
30     H30    -0.5286    1.8543    0.9071 H        1 ZINC000150894060    0.0700
31     H31     0.0176   -2.2226   -3.2849 H        1 ZINC000150894060    0.4100
32     H32    -0.9090   -0.2429   -5.0734 H        1 ZINC000150894060    0.0800
33     H33     0.8707   -0.2178   -5.0820 H        1 ZINC000150894060    0.0800
34     H34     0.9022   -2.6369   -5.6258 H        1 ZINC000150894060    0.0800
35     H35    -0.8775   -2.6620   -5.6172 H        1 ZINC000150894060    0.0800
36     H36    -0.9098   -0.9977   -7.4551 H        1 ZINC000150894060    0.0800
37     H37     0.8699   -0.9727   -7.4637 H        1 ZINC000150894060    0.0800
38     H38     0.0160   -3.6464   -7.7775 H        1 ZINC000150894060    0.4000
39     H39     0.0234   -5.1893   -8.7745 H        1 ZINC000150894060    0.1300
40     H40     0.0426   -7.1428  -10.2687 H        1 ZINC000150894060    0.1300
41     H41     0.5504   -6.9177  -13.8961 H        1 ZINC000150894060    0.1100
42     H42     0.5638   -7.9926  -12.4774 H        1 ZINC000150894060    0.1000
43     H43    -1.3675   -7.5741  -15.4295 H        1 ZINC000150894060    0.1700
44     H44    -3.8681   -8.3127  -15.1228 H        1 ZINC000150894060    0.1500
45     H45    -4.3625   -8.4718  -12.5065 H        1 ZINC000150894060    0.1800
46     H46     0.0097   -4.5663  -13.6692 H        1 ZINC000150894060    0.1300
47     H47    -0.0161   -2.5994  -12.1927 H        1 ZINC000150894060    0.1400
48     H48     0.0506   -3.0084    1.2771 H        1 ZINC000150894060    0.2100
49     H49     0.0267   -0.5393    2.1585 H        1 ZINC000150894060    0.1600
@<TRIPOS>BOND
1     1     2     1
2     1     28    1
3     1     29    1
4     1     30    1
5     2     27    1
6     2     3     2
7     3     4     1
8     3     25    1
9     4     5     2
10    4     6     am
11    6     7     1
12    6     31    1
13    7     8     1
14    7     32    1
15    7     33    1
16    8     9     1
17    8     34    1
18    8     35    1
19    9     10    1
20    9     36    1
21    9     37    1
22    10    11    am
23    10    38    1
24    11    12    2
25    11    13    1
26    13    24    ar
27    13    14    ar
28    14    15    ar
29    14    39    1
30    15    16    ar
31    15    40    1
32    16    17    1
33    16    23    ar
34    17    18    1
35    17    41    1
36    17    42    1
37    18    22    1
38    18    19    1
39    19    20    2
40    19    43    1
41    20    21    1
42    20    44    1
43    21    22    2
44    21    45    1
45    23    24    ar
46    23    46    1
47    24    47    1
48    25    26    1
49    26    27    2
50    26    48    1
51    27    49    1
@<TRIPOS>SUBSTRUCTURE
1   ZINC000150894060 1     RESIDUE    1   A     ZIN   1
@<TRIPOS>MOLECULE
ZINC000790205345
54	56	1	0	0
SMALL
USER_CHARGES
@<TRIPOS>ATOM
1      C1     -0.0472    1.6379   -0.9418 C.3      1 ZINC000790205345   -0.1100
2      C2     -0.0266    0.1384   -0.7925 C.ar     1 ZINC000790205345   -0.1300
3      C3     -0.0110   -0.6667   -1.9161 C.ar     1 ZINC000790205345   -0.0800
4      C4      0.0084   -2.0417   -1.7820 C.ar     1 ZINC000790205345   -0.2100
5      C5      0.0122   -2.6141   -0.5185 C.ar     1 ZINC000790205345    0.1300
6      O6      0.0318   -3.9663   -0.3838 O.3      1 ZINC000790205345   -0.2900
7      C7      0.0476   -4.7378   -1.5866 C.3      1 ZINC000790205345    0.0400
8      C8      0.0680   -6.2048   -1.2421 C.2      1 ZINC000790205345    0.5200
9      O9      0.0690   -6.5551   -0.0810 O.2      1 ZINC000790205345   -0.5100
10     N10     0.0852   -7.1275   -2.2243 N.am     1 ZINC000790205345   -0.6100
11     C11     0.0841   -6.7043   -3.6269 C.3      1 ZINC000790205345    0.0700
12     C12     0.1051   -8.5535   -1.8895 C.3      1 ZINC000790205345    0.1800
13     H13     0.0472   -8.6736   -0.8076 H        1 ZINC000790205345    0.1200
14     C14     1.4029   -9.1800   -2.4034 C.3      1 ZINC000790205345   -0.1600
15     C15    -1.0727   -9.2375   -2.5345 C.ar     1 ZINC000790205345   -0.0700
16     C16    -0.9722  -10.5582   -2.9309 C.ar     1 ZINC000790205345   -0.1300
17     C17    -2.0507  -11.1893   -3.5237 C.ar     1 ZINC000790205345   -0.0900
18     C18    -3.2319  -10.5017   -3.7209 C.ar     1 ZINC000790205345   -0.1500
19     C19    -3.3362   -9.1751   -3.3234 C.ar     1 ZINC000790205345    0.1800
20     N20    -4.5321   -8.4756   -3.5216 N.am     1 ZINC000790205345   -0.5700
21     C21    -5.7531   -9.0243   -4.1312 C.3      1 ZINC000790205345    0.0600
22     C22    -6.7418   -7.8429   -4.0998 C.3      1 ZINC000790205345    0.0400
23     O23    -5.9823   -6.7636   -3.4823 O.3      1 ZINC000790205345   -0.3200
24     C24    -4.7534   -7.1984   -3.1816 C.2      1 ZINC000790205345    0.6400
25     O25    -3.9120   -6.4969   -2.6557 O.2      1 ZINC000790205345   -0.5000
26     C26    -2.2533   -8.5459   -2.7239 C.ar     1 ZINC000790205345   -0.1400
27     C27    -0.0034   -1.8038    0.6078 C.ar     1 ZINC000790205345   -0.1500
28     C28    -0.0174   -0.4297    0.4683 C.ar     1 ZINC000790205345   -0.0500
29     C29    -0.0339    0.4511    1.6910 C.3      1 ZINC000790205345   -0.1200
30     H30     0.9754    2.0134   -0.9789 H        1 ZINC000790205345    0.0700
31     H31    -0.5658    1.9042   -1.8628 H        1 ZINC000790205345    0.0600
32     H32    -0.5662    2.0805   -0.0916 H        1 ZINC000790205345    0.0700
33     H33    -0.0144   -0.2206   -2.8997 H        1 ZINC000790205345    0.1300
34     H34     0.0201   -2.6703   -2.6601 H        1 ZINC000790205345    0.1300
35     H35    -0.8437   -4.5147   -2.1731 H        1 ZINC000790205345    0.1000
36     H36     0.9361   -4.4884   -2.1666 H        1 ZINC000790205345    0.0900
37     H37     1.1047   -6.4868   -3.9416 H        1 ZINC000790205345    0.0600
38     H38    -0.3250   -7.5022   -4.2467 H        1 ZINC000790205345    0.0800
39     H39    -0.5283   -5.8093   -3.7359 H        1 ZINC000790205345    0.0700
40     H40     1.4608   -9.0600   -3.4852 H        1 ZINC000790205345    0.0600
41     H41     2.2548   -8.6854   -1.9368 H        1 ZINC000790205345    0.0700
42     H42     1.4177  -10.2411   -2.1542 H        1 ZINC000790205345    0.0800
43     H43    -0.0495  -11.0981   -2.7777 H        1 ZINC000790205345    0.1300
44     H44    -1.9689  -12.2208   -3.8329 H        1 ZINC000790205345    0.1300
45     H45    -4.0736  -10.9950   -4.1842 H        1 ZINC000790205345    0.1300
46     H46    -5.5616   -9.3361   -5.1579 H        1 ZINC000790205345    0.1000
47     H47    -6.1340   -9.8581   -3.5415 H        1 ZINC000790205345    0.1000
48     H48    -7.0419   -7.5688   -5.1112 H        1 ZINC000790205345    0.1100
49     H49    -7.6142   -8.0907   -3.4952 H        1 ZINC000790205345    0.1100
50     H50    -2.3314   -7.5144   -2.4134 H        1 ZINC000790205345    0.1600
51     H51    -0.0007   -2.2470    1.5926 H        1 ZINC000790205345    0.1300
52     H52     0.9897    0.6745    1.9917 H        1 ZINC000790205345    0.0700
53     H53    -0.5565    1.3800    1.4627 H        1 ZINC000790205345    0.0700
54     H54    -0.5468   -0.0643    2.5031 H        1 ZINC000790205345    0.0700
@<TRIPOS>BOND
1     1     2     1
2     1     30    1
3     1     31    1
4     1     32    1
5     2     28    ar
6     2     3     ar
7     3     4     ar
8     3     33    1
9     4     5     ar
10    4     34    1
11    5     6     1
12    5     27    ar
13    6     7     1
14    7     8     1
15    7     35    1
16    7     36    1
17    8     9     2
18    8     10    am
19    10    11    1
20    10    12    1
21    11    37    1
22    11    38    1
23    11    39    1
24    12    13    1
25    12    14    1
26    12    15    1
27    14    40    1
28    14    41    1
29    14    42    1
30    15    26    ar
31    15    16    ar
32    16    17    ar
33    16    43    1
34    17    18    ar
35    17    44    1
36    18    19    ar
37    18    45    1
38    19    20    1
39    19    26    ar
40    20    24    am
41    20    21    1
42    21    22    1
43    21    46    1
44    21    47    1
45    22    23    1
46    22    48    1
47    22    49    1
48    23    24    1
49    24    25    2
50    26    50    1
51    27    28    ar
52    27    51    1
53    28    29    1
54    29    52    1
55    29    53    1
56    29    54    1
@<TRIPOS>SUBSTRUCTURE
1   ZINC000790205345 1     RESIDUE    1   A     ZIN   1
@<TRIPOS>MOLECULE
ZINC001411334959
46	48	1	0	0
SMALL
USER_CHARGES
@<TRIPOS>ATOM
1      O1      0.0021   -0.0041    0.0020 O.2      1 ZINC001411334959   -0.5400
2      C2     -0.0144    1.2086    0.0087 C.2      1 ZINC001411334959    0.5200
3      C3      1.2803    1.9798    0.0005 C.3      1 ZINC001411334959   -0.1400
4      C4      2.4566    1.0015   -0.0160 C.3      1 ZINC001411334959   -0.0100
5      C5      3.7513    1.7727   -0.0242 C.2      1 ZINC001411334959    0.0100
6      N6      4.1130    2.7031   -0.8783 N.2      1 ZINC001411334959   -0.2800
7      N7      5.2844    3.1255   -0.5569 N.pl3    1 ZINC001411334959   -0.2500
8      N8      5.7212    2.5099    0.4842 N.2      1 ZINC001411334959   -0.2800
9      C9      4.8102    1.6491    0.8782 C.2      1 ZINC001411334959   -0.0200
10     N10    -1.1906    1.8666    0.0178 N.am     1 ZINC001411334959   -0.7200
11     C11    -2.4492    1.1169    0.0197 C.3      1 ZINC001411334959    0.1200
12     C12    -3.1890    1.1584    1.3673 C.3      1 ZINC001411334959   -0.1400
13     C13    -4.4902    1.2964    0.5594 C.3      1 ZINC001411334959   -0.1200
14     C14    -5.4884    2.2827    1.1690 C.3      1 ZINC001411334959    0.1300
15     N15    -6.7344    2.2550    0.3990 N.am     1 ZINC001411334959   -0.7200
16     C16    -7.7643    3.0482    0.7549 C.2      1 ZINC001411334959    0.5100
17     O17    -7.6596    3.7848    1.7127 O.2      1 ZINC001411334959   -0.5100
18     C18    -9.0460    3.0198   -0.0372 C.3      1 ZINC001411334959    0.0700
19     F19    -9.5746    1.7251   -0.0786 F        1 ZINC001411334959   -0.1800
20     C20   -10.0777    4.0244    0.5445 C.3      1 ZINC001411334959   -0.1600
21     C21   -10.9066    4.3605   -0.7208 C.3      1 ZINC001411334959    0.0500
22     O22    -9.9566    4.3768   -1.7981 O.3      1 ZINC001411334959   -0.3700
23     C23    -8.8230    3.5680   -1.4631 C.3      1 ZINC001411334959    0.0400
24     C24    -3.6348    1.9020   -0.5659 C.3      1 ZINC001411334959   -0.1400
25     H25     1.3211    2.6120   -0.8866 H        1 ZINC001411334959    0.1000
26     H26     1.3381    2.6024    0.8933 H        1 ZINC001411334959    0.1000
27     H27     2.4158    0.3693    0.8710 H        1 ZINC001411334959    0.1000
28     H28     2.3988    0.3789   -0.9088 H        1 ZINC001411334959    0.0900
29     H29     5.7720    3.8145   -1.0348 H        1 ZINC001411334959    0.4700
30     H30     4.8706    0.9785    1.7226 H        1 ZINC001411334959    0.2000
31     H31    -1.2037    2.8365    0.0232 H        1 ZINC001411334959    0.4000
32     H32    -2.3446    0.1129   -0.3916 H        1 ZINC001411334959    0.1200
33     H33    -3.1217    0.2281    1.9312 H        1 ZINC001411334959    0.0800
34     H34    -2.9529    2.0367    1.9681 H        1 ZINC001411334959    0.0900
35     H35    -4.9451    0.3410    0.2979 H        1 ZINC001411334959    0.1000
36     H36    -5.6933    2.0007    2.2018 H        1 ZINC001411334959    0.0800
37     H37    -5.0677    3.2879    1.1435 H        1 ZINC001411334959    0.0800
38     H38    -6.8182    1.6659   -0.3671 H        1 ZINC001411334959    0.4100
39     H39   -10.6981    3.5532    1.3068 H        1 ZINC001411334959    0.1000
40     H40    -9.5827    4.9126    0.9372 H        1 ZINC001411334959    0.1100
41     H41   -11.6613    3.5932   -0.8935 H        1 ZINC001411334959    0.0700
42     H42   -11.3770    5.3382   -0.6162 H        1 ZINC001411334959    0.1000
43     H43    -7.9165    4.1728   -1.4891 H        1 ZINC001411334959    0.0900
44     H44    -8.7375    2.7410   -2.1680 H        1 ZINC001411334959    0.0900
45     H45    -3.5205    2.9836   -0.4936 H        1 ZINC001411334959    0.0900
46     H46    -3.9274    1.5720   -1.5626 H        1 ZINC001411334959    0.0800
@<TRIPOS>BOND
1     1     2     2
2     2     3     1
3     2     10    am
4     3     4     1
5     3     25    1
6     3     26    1
7     4     5     1
8     4     27    1
9     4     28    1
10    5     9     1
11    5     6     2
12    6     7     1
13    7     8     1
14    7     29    1
15    8     9     2
16    9     30    1
17    10    11    1
18    10    31    1
19    11    24    1
20    11    12    1
21    11    32    1
22    12    13    1
23    12    33    1
24    12    34    1
25    13    14    1
26    13    24    1
27    13    35    1
28    14    15    1
29    14    36    1
30    14    37    1
31    15    16    am
32    15    38    1
33    16    17    2
34    16    18    1
35    18    23    1
36    18    19    1
37    18    20    1
38    20    21    1
39    20    39    1
40    20    40    1
41    21    22    1
42    21    41    1
43    21    42    1
44    22    23    1
45    23    43    1
46    23    44    1
47    24    45    1
48    24    46    1
@<TRIPOS>SUBSTRUCTURE
1   ZINC001411334959 1     RESIDUE    1   A     ZIN   1
@<TRIPOS>MOLECULE
ZINC000888733009
45	48	1	0	0
SMALL
USER_CHARGES
@<TRIPOS>ATOM
1      C1     -0.0187    1.5258    0.0104 C.3      1 ZINC000888733009   -0.1500
2      C2      0.0021   -0.0041    0.0020 C.3      1 ZINC000888733009    0.0700
3      H3      0.5206   -0.3707   -0.8839 H        1 ZINC000888733009    0.0700
4      C4     -1.4404   -0.5624    0.0512 C.3      1 ZINC000888733009   -0.1300
5      C5     -1.3177   -1.8029    0.9462 C.3      1 ZINC000888733009   -0.1100
6      C6     -2.3230   -1.8991    2.0910 C.3      1 ZINC000888733009   -0.1300
7      C7     -2.3538   -3.4145    1.8195 C.3      1 ZINC000888733009    0.1200
8      N8     -3.6955   -3.9972    1.9006 N.am     1 ZINC000888733009   -0.7100
9      C9     -3.8459   -5.3050    2.1896 C.2      1 ZINC000888733009    0.5900
10     O10    -2.8670   -6.0019    2.3833 O.2      1 ZINC000888733009   -0.5600
11     C11    -5.1884   -5.8880    2.2708 C.2      1 ZINC000888733009   -0.2400
12     C12    -5.4268   -7.2061    2.5644 C.2      1 ZINC000888733009    0.0800
13     N13    -4.4427   -8.1467    2.8198 N.am     1 ZINC000888733009   -0.6100
14     C14    -4.7840   -9.4203    3.0991 C.2      1 ZINC000888733009    0.6000
15     O15    -5.9569   -9.7439    3.1268 O.2      1 ZINC000888733009   -0.4900
16     C16    -3.7425  -10.4158    3.3694 C.2      1 ZINC000888733009   -0.0900
17     C17    -3.9485  -11.7346    3.6589 C.2      1 ZINC000888733009   -0.1000
18     C18    -2.6816  -12.3097    3.8439 C.2      1 ZINC000888733009   -0.2300
19     C19    -1.7693  -11.3295    3.6616 C.2      1 ZINC000888733009    0.0100
20     O20    -2.4121  -10.1912    3.3702 O.3      1 ZINC000888733009   -0.1600
21     S21    -7.1006   -7.5279    2.5724 S.3      1 ZINC000888733009    0.3000
22     C22    -7.5009   -5.8664    2.1747 C.2      1 ZINC000888733009   -0.2800
23     C23    -6.4034   -5.1331    2.0557 C.2      1 ZINC000888733009   -0.0900
24     C24    -1.9082   -3.0922    0.3812 C.3      1 ZINC000888733009   -0.1400
25     C25     0.1618   -1.8644    1.3485 C.3      1 ZINC000888733009    0.0700
26     O26     0.6371   -0.5049    1.1997 O.3      1 ZINC000888733009   -0.3700
27     H27     1.0039    1.9031    0.0027 H        1 ZINC000888733009    0.0600
28     H28    -0.5459    1.8868   -0.8726 H        1 ZINC000888733009    0.0700
29     H29    -0.5289    1.8773    0.9072 H        1 ZINC000888733009    0.0600
30     H30    -2.1184    0.1659    0.4963 H        1 ZINC000888733009    0.0800
31     H31    -1.7776   -0.8416   -0.9470 H        1 ZINC000888733009    0.0800
32     H32    -1.9055   -1.6371    3.0632 H        1 ZINC000888733009    0.0800
33     H33    -3.2691   -1.3983    1.8857 H        1 ZINC000888733009    0.0900
34     H34    -1.6142   -3.9750    2.3912 H        1 ZINC000888733009    0.1200
35     H35    -4.4756   -3.4418    1.7463 H        1 ZINC000888733009    0.4000
36     H36    -3.5079   -7.8888    2.7977 H        1 ZINC000888733009    0.4400
37     H37    -4.9015  -12.2374    3.7317 H        1 ZINC000888733009    0.1700
38     H38    -2.4747  -13.3416    4.0866 H        1 ZINC000888733009    0.1600
39     H39    -0.6981  -11.4459    3.7344 H        1 ZINC000888733009    0.2200
40     H40    -8.5057   -5.4913    2.0483 H        1 ZINC000888733009    0.1700
41     H41    -6.4147   -4.0804    1.8145 H        1 ZINC000888733009    0.1500
42     H42    -2.7370   -2.9288   -0.3076 H        1 ZINC000888733009    0.0900
43     H43    -1.1599   -3.7816   -0.0100 H        1 ZINC000888733009    0.0800
44     H44     0.2613   -2.1916    2.3834 H        1 ZINC000888733009    0.0900
45     H45     0.7094   -2.5319    0.6832 H        1 ZINC000888733009    0.0700
@<TRIPOS>BOND
1     1     2     1
2     1     27    1
3     1     28    1
4     1     29    1
5     2     3     1
6     2     26    1
7     2     4     1
8     4     5     1
9     4     30    1
10    4     31    1
11    5     24    1
12    5     6     1
13    5     25    1
14    6     7     1
15    6     32    1
16    6     33    1
17    7     8     1
18    7     24    1
19    7     34    1
20    8     9     am
21    8     35    1
22    9     10    2
23    9     11    1
24    11    23    1
25    11    12    2
26    12    13    1
27    12    21    1
28    13    14    am
29    13    36    1
30    14    15    2
31    14    16    1
32    16    20    1
33    16    17    2
34    17    18    1
35    17    37    1
36    18    19    2
37    18    38    1
38    19    20    1
39    19    39    1
40    21    22    1
41    22    23    2
42    22    40    1
43    23    41    1
44    24    42    1
45    24    43    1
46    25    26    1
47    25    44    1
48    25    45    1
@<TRIPOS>SUBSTRUCTURE
1   ZINC000888733009 1     RESIDUE    1   A     ZIN   1
@<TRIPOS>MOLECULE
ZINC000621594459
48	49	1	0	0
SMALL
USER_CHARGES
@<TRIPOS>ATOM
1      C1     -0.0187    1.5258    0.0104 C.3      1 ZINC000621594459   -0.1600
2      C2      0.0021   -0.0041    0.0020 C.3      1 ZINC000621594459    0.1300
3      C3      0.7421   -0.5109    1.2415 C.3      1 ZINC000621594459   -0.1800
4      N4     -1.3723   -0.5112    0.0124 N.am     1 ZINC000621594459   -1.1100
5      S5     -1.7504   -1.8955   -0.8140 S.o2     1 ZINC000621594459    2.6200
6      O6     -3.1458   -2.0602   -0.6019 O.2      1 ZINC000621594459   -0.9500
7      O7     -1.2281   -1.6790   -2.1177 O.2      1 ZINC000621594459   -0.9400
8      C8     -0.8189   -3.1991    0.0365 C.3      1 ZINC000621594459   -0.6600
9      C9     -1.0880   -4.5438   -0.6421 C.3      1 ZINC000621594459    0.1300
10     N10    -0.3358   -5.5966    0.0448 N.am     1 ZINC000621594459   -0.7200
11     C11    -0.4194   -6.8723   -0.3818 C.2      1 ZINC000621594459    0.5600
12     O12    -1.1189   -7.1493   -1.3365 O.2      1 ZINC000621594459   -0.5200
13     C13     0.3398   -7.9349    0.3114 C.ar     1 ZINC000621594459   -0.1500
14     C14     1.1394   -7.6211    1.4113 C.ar     1 ZINC000621594459   -0.0300
15     C15     1.8450   -8.6175    2.0541 C.ar     1 ZINC000621594459   -0.1400
16     C16     1.7614   -9.9251    1.6101 C.ar     1 ZINC000621594459    0.0100
17     C17     0.9708  -10.2428    0.5198 C.ar     1 ZINC000621594459   -0.6800
18     S18     0.8719  -11.9113   -0.0379 S.o2     1 ZINC000621594459    2.7000
19     O19     0.4889  -11.8554   -1.4052 O.2      1 ZINC000621594459   -0.9400
20     O20     2.0559  -12.5556    0.4119 O.2      1 ZINC000621594459   -0.9500
21     N21    -0.3848  -12.6248    0.7709 N.am     1 ZINC000621594459   -1.0900
22     C22    -1.7561  -12.1583    0.5515 C.3      1 ZINC000621594459    0.0800
23     C23    -2.8758  -13.1986    0.6212 C.3      1 ZINC000621594459   -0.1800
24     C24    -2.7089  -12.1778    1.7485 C.3      1 ZINC000621594459   -0.1900
25     C25     0.2555   -9.2572   -0.1279 C.ar     1 ZINC000621594459    0.0400
26     H26     1.0039    1.9031    0.0027 H        1 ZINC000621594459    0.0700
27     H27    -0.5459    1.8868   -0.8726 H        1 ZINC000621594459    0.0700
28     H28    -0.5289    1.8773    0.9072 H        1 ZINC000621594459    0.0600
29     H29     0.5123   -0.3556   -0.8948 H        1 ZINC000621594459    0.0900
30     H30     0.2319   -0.1594    2.1383 H        1 ZINC000621594459    0.0700
31     H31     0.7568   -1.6008    1.2356 H        1 ZINC000621594459    0.0600
32     H32     1.7647   -0.1336    1.2338 H        1 ZINC000621594459    0.0700
33     H33    -2.0609   -0.0360    0.5034 H        1 ZINC000621594459    0.4200
34     H34     0.2466   -2.9747   -0.0116 H        1 ZINC000621594459    0.1400
35     H35    -1.1331   -3.2490    1.0790 H        1 ZINC000621594459    0.1400
36     H36    -2.1536   -4.7682   -0.5940 H        1 ZINC000621594459    0.0900
37     H37    -0.7739   -4.4939   -1.6847 H        1 ZINC000621594459    0.0900
38     H38     0.2225   -5.3756    0.8066 H        1 ZINC000621594459    0.4000
39     H39     1.2060   -6.6006    1.7585 H        1 ZINC000621594459    0.1300
40     H40     2.4641   -8.3761    2.9054 H        1 ZINC000621594459    0.1400
41     H41     2.3160  -10.7012    2.1165 H        1 ZINC000621594459    0.1500
42     H42    -0.2129  -13.3516    1.3899 H        1 ZINC000621594459    0.4200
43     H43    -1.8671  -11.3462   -0.1670 H        1 ZINC000621594459    0.1400
44     H44    -3.7238  -13.0712   -0.0518 H        1 ZINC000621594459    0.1100
45     H45    -2.5922  -14.2301    0.8302 H        1 ZINC000621594459    0.1000
46     H46    -2.3154  -12.5377    2.6992 H        1 ZINC000621594459    0.1000
47     H47    -3.4470  -11.3787    1.8173 H        1 ZINC000621594459    0.1000
48     H48    -0.3615   -9.5065   -0.9785 H        1 ZINC000621594459    0.1600
@<TRIPOS>BOND
1     1     2     1
2     1     26    1
3     1     27    1
4     1     28    1
5     2     3     1
6     2     4     1
7     2     29    1
8     3     30    1
9     3     31    1
10    3     32    1
11    4     5     am
12    4     33    1
13    5     6     2
14    5     7     2
15    5     8     1
16    8     9     1
17    8     34    1
18    8     35    1
19    9     10    1
20    9     36    1
21    9     37    1
22    10    11    am
23    10    38    1
24    11    12    2
25    11    13    1
26    13    25    ar
27    13    14    ar
28    14    15    ar
29    14    39    1
30    15    16    ar
31    15    40    1
32    16    17    ar
33    16    41    1
34    17    18    1
35    17    25    ar
36    18    19    2
37    18    20    2
38    18    21    am
39    21    22    1
40    21    42    1
41    22    24    1
42    22    23    1
43    22    43    1
44    23    24    1
45    23    44    1
46    23    45    1
47    24    46    1
48    24    47    1
49    25    48    1
@<TRIPOS>SUBSTRUCTURE
1   ZINC000621594459 1     RESIDUE    1   A     ZIN   1
@<TRIPOS>MOLECULE
ZINC000952280524
57	59	1	0	0
SMALL
USER_CHARGES
@<TRIPOS>ATOM
1      C1      0.6396   -0.6139    1.2449 C.3      1 ZINC000952280524   -0.1800
2      C2      0.0033    0.0283    0.0106 C.3      1 ZINC000952280524    0.1400
3      C3     -1.4323   -0.4774   -0.1447 C.3      1 ZINC000952280524   -0.1900
4      O4     -0.0062    1.4490    0.1642 O.3      1 ZINC000952280524   -0.5500
5      C5      0.8128   -0.3448   -1.2330 C.3      1 ZINC000952280524   -0.1200
6      C6      0.2268    0.3433   -2.4389 C.2      1 ZINC000952280524    0.5300
7      O7     -0.6710    1.1471   -2.3018 O.2      1 ZINC000952280524   -0.5100
8      N8      0.7004    0.0654   -3.6697 N.am     1 ZINC000952280524   -0.6300
9      C9      1.7760   -0.8881   -3.9789 C.3      1 ZINC000952280524    0.1000
10     C10     1.9930   -0.8545   -5.5064 C.3      1 ZINC000952280524   -0.1300
11     C11     1.4171    0.5289   -5.9089 C.3      1 ZINC000952280524   -0.1000
12     H12     2.1498    1.3194   -5.7463 H        1 ZINC000952280524    0.0900
13     C13     0.9362    0.5212   -7.3613 C.3      1 ZINC000952280524   -0.0700
14     C14     0.3418    1.8879   -7.7088 C.3      1 ZINC000952280524   -0.1300
15     C15    -0.1700    1.8656   -9.1526 C.3      1 ZINC000952280524    0.1100
16     N16     0.9249    1.4415  -10.0359 N.am     1 ZINC000952280524   -0.6100
17     C17     1.2794    2.1910  -11.0985 C.2      1 ZINC000952280524    0.5500
18     O18     0.6352    3.1816  -11.3860 O.2      1 ZINC000952280524   -0.5500
19     C19     2.4456    1.8107  -11.9105 C.2      1 ZINC000952280524   -0.2200
20     C20     2.8597    2.6059  -12.8928 C.2      1 ZINC000952280524   -0.0300
21     C21     4.0544    2.2163  -13.7247 C.3      1 ZINC000952280524   -0.1500
22     C22     4.3603    3.0632  -14.9616 C.3      1 ZINC000952280524   -0.1700
23     C23     5.2549    3.1649  -13.7246 C.3      1 ZINC000952280524   -0.1600
24     C24     1.6263    0.1852   -9.7384 C.3      1 ZINC000952280524    0.1000
25     C25     2.1179    0.2264   -8.2881 C.3      1 ZINC000952280524   -0.1300
26     C26     0.2214    0.6625   -4.9297 C.3      1 ZINC000952280524    0.1100
27     H27     0.5680   -1.6988    1.1677 H        1 ZINC000952280524    0.0700
28     H28     1.6881   -0.3225    1.3064 H        1 ZINC000952280524    0.0600
29     H29     0.1159   -0.2781    2.1399 H        1 ZINC000952280524    0.0600
30     H30    -2.0090   -0.2116    0.7412 H        1 ZINC000952280524    0.0600
31     H31    -1.8856   -0.0199   -1.0241 H        1 ZINC000952280524    0.0800
32     H32    -1.4251   -1.5611   -0.2619 H        1 ZINC000952280524    0.0600
33     H33    -0.5024    1.7580    0.9345 H        1 ZINC000952280524    0.3700
34     H34     1.8475   -0.0285   -1.1013 H        1 ZINC000952280524    0.1000
35     H35     0.7785   -1.4245   -1.3784 H        1 ZINC000952280524    0.1000
36     H36     2.6920   -0.5920   -3.4677 H        1 ZINC000952280524    0.0700
37     H37     1.4830   -1.8909   -3.6680 H        1 ZINC000952280524    0.0700
38     H38     3.0545   -0.9150   -5.7465 H        1 ZINC000952280524    0.0800
39     H39     1.4401   -1.6585   -5.9922 H        1 ZINC000952280524    0.0800
40     H40     0.1748   -0.2485   -7.4877 H        1 ZINC000952280524    0.0800
41     H41    -0.4849    2.1075   -7.0332 H        1 ZINC000952280524    0.0800
42     H42     1.1093    2.6551   -7.6067 H        1 ZINC000952280524    0.0700
43     H43    -0.9993    1.1631   -9.2355 H        1 ZINC000952280524    0.0700
44     H44    -0.5037    2.8634   -9.4375 H        1 ZINC000952280524    0.0900
45     H45     2.9654    0.8858  -11.7090 H        1 ZINC000952280524    0.1300
46     H46     2.3398    3.5308  -13.0943 H        1 ZINC000952280524    0.1300
47     H47     4.2578    1.1471  -13.7835 H        1 ZINC000952280524    0.1200
48     H48     4.7650    2.5512  -15.8346 H        1 ZINC000952280524    0.1000
49     H49     3.6975    3.9021  -15.1737 H        1 ZINC000952280524    0.1000
50     H50     5.1806    4.0707  -13.1228 H        1 ZINC000952280524    0.1000
51     H51     6.2481    2.7197  -13.7837 H        1 ZINC000952280524    0.1000
52     H52     0.9435   -0.6543   -9.8691 H        1 ZINC000952280524    0.0700
53     H53     2.4778    0.0743  -10.4098 H        1 ZINC000952280524    0.0900
54     H54     2.8687    1.0092   -8.1805 H        1 ZINC000952280524    0.0700
55     H55     2.5554   -0.7366   -8.0248 H        1 ZINC000952280524    0.0800
56     H56    -0.6427    0.1174   -5.3095 H        1 ZINC000952280524    0.0700
57     H57    -0.0285    1.7124   -4.7771 H        1 ZINC000952280524    0.0800
@<TRIPOS>BOND
1     1     2     1
2     1     27    1
3     1     28    1
4     1     29    1
5     2     3     1
6     2     4     1
7     2     5     1
8     3     30    1
9     3     31    1
10    3     32    1
11    4     33    1
12    5     6     1
13    5     34    1
14    5     35    1
15    6     7     2
16    6     8     am
17    8     26    1
18    8     9     1
19    9     10    1
20    9     36    1
21    9     37    1
22    10    11    1
23    10    38    1
24    10    39    1
25    11    12    1
26    11    13    1
27    11    26    1
28    13    25    1
29    13    14    1
30    13    40    1
31    14    15    1
32    14    41    1
33    14    42    1
34    15    16    1
35    15    43    1
36    15    44    1
37    16    17    am
38    16    24    1
39    17    18    2
40    17    19    1
41    19    20    2
42    19    45    1
43    20    21    1
44    20    46    1
45    21    23    1
46    21    22    1
47    21    47    1
48    22    23    1
49    22    48    1
50    22    49    1
51    23    50    1
52    23    51    1
53    24    25    1
54    24    52    1
55    24    53    1
56    25    54    1
57    25    55    1
58    26    56    1
59    26    57    1
@<TRIPOS>SUBSTRUCTURE
1   ZINC000952280524 1     RESIDUE    1   A     ZIN   1
@<TRIPOS>MOLECULE
ZINC001191196975
53	53	1	0	0
SMALL
USER_CHARGES
@<TRIPOS>ATOM
1      C1      4.0713   -2.6033   -4.4519 C.2      1 ZINC001191196975   -0.1600
2      C2      4.8349   -3.0239   -3.4742 C.2      1 ZINC001191196975   -0.1800
3      C3      4.6095   -2.5202   -2.0718 C.3      1 ZINC001191196975    0.1500
4      N4      4.4218   -3.6581   -1.1684 N.am     1 ZINC001191196975   -0.7300
5      C5      4.2032   -3.4471    0.1446 C.2      1 ZINC001191196975    0.5100
6      O6      4.1619   -2.3153    0.5783 O.2      1 ZINC001191196975   -0.5200
7      C7      4.0101   -4.6177    1.0739 C.3      1 ZINC001191196975    0.0300
8      N8      3.7904   -4.1266    2.4409 N.3      1 ZINC001191196975   -0.5100
9      C9      2.5230   -3.3902    2.5384 C.3      1 ZINC001191196975    0.0200
10     C10     3.8341   -5.2298    3.4100 C.3      1 ZINC001191196975    0.0700
11     H11     3.0471   -5.9562    3.2076 H        1 ZINC001191196975    0.0600
12     C12     3.7387   -4.6968    4.8640 C.3      1 ZINC001191196975   -0.1200
13     C13     4.4592   -5.7901    5.6808 C.3      1 ZINC001191196975    0.1000
14     N14     5.3447   -6.5133    4.7565 N.am     1 ZINC001191196975   -0.6200
15     C15     6.1326   -7.5580    5.0793 C.2      1 ZINC001191196975    0.5300
16     O16     6.8249   -8.0802    4.2314 O.2      1 ZINC001191196975   -0.5400
17     C17     6.1534   -8.0773    6.4938 C.3      1 ZINC001191196975   -0.1300
18     C18     7.1227   -9.2572    6.5898 C.3      1 ZINC001191196975   -0.1000
19     C19     7.1438   -9.7844    8.0259 C.3      1 ZINC001191196975   -0.1300
20     C20     8.1131  -10.9643    8.1219 C.3      1 ZINC001191196975    0.1400
21     N21     8.1334  -11.4691    9.4970 N.am     1 ZINC001191196975   -0.7500
22     C22     8.9213  -12.5138    9.8198 C.2      1 ZINC001191196975    0.7000
23     N23     8.9399  -12.9782   11.0849 N.am     1 ZINC001191196975   -0.8700
24     O24     9.6153  -13.0373    8.9697 O.2      1 ZINC001191196975   -0.5900
25     C25     5.2270   -5.9077    3.4170 C.3      1 ZINC001191196975    0.1100
26     H26     3.2802   -1.8954   -4.2530 H        1 ZINC001191196975    0.1000
27     H27     4.2357   -2.9609   -5.4576 H        1 ZINC001191196975    0.1000
28     H28     5.6260   -3.7318   -3.6730 H        1 ZINC001191196975    0.1200
29     H29     5.4747   -1.9402   -1.7507 H        1 ZINC001191196975    0.0800
30     H30     3.7210   -1.8892   -2.0509 H        1 ZINC001191196975    0.0700
31     H31     4.4549   -4.5633   -1.5153 H        1 ZINC001191196975    0.4000
32     H32     3.1449   -5.1977    0.7528 H        1 ZINC001191196975    0.0700
33     H33     4.8986   -5.2487    1.0530 H        1 ZINC001191196975    0.1100
34     H34     1.7111   -4.0129    2.1627 H        1 ZINC001191196975    0.0200
35     H35     2.3315   -3.1330    3.5801 H        1 ZINC001191196975    0.0700
36     H36     2.5861   -2.4782    1.9447 H        1 ZINC001191196975    0.0900
37     H37     4.2545   -3.7413    4.9592 H        1 ZINC001191196975    0.0900
38     H38     2.6976   -4.6068    5.1742 H        1 ZINC001191196975    0.0800
39     H39     5.0477   -5.3317    6.4756 H        1 ZINC001191196975    0.0700
40     H40     3.7279   -6.4768    6.1072 H        1 ZINC001191196975    0.0700
41     H41     6.4786   -7.2842    7.1672 H        1 ZINC001191196975    0.0900
42     H42     5.1528   -8.4053    6.7752 H        1 ZINC001191196975    0.0900
43     H43     6.7975  -10.0502    5.9164 H        1 ZINC001191196975    0.0800
44     H44     8.1234   -8.9292    6.3084 H        1 ZINC001191196975    0.0800
45     H45     7.4690   -8.9913    8.6993 H        1 ZINC001191196975    0.0700
46     H46     6.1432  -10.1124    8.3073 H        1 ZINC001191196975    0.0700
47     H47     7.7880  -11.7573    7.4485 H        1 ZINC001191196975    0.0700
48     H48     9.1138  -10.6362    7.8405 H        1 ZINC001191196975    0.0700
49     H49     7.5797  -11.0514   10.1752 H        1 ZINC001191196975    0.4000
50     H50     8.3862  -12.5605   11.7631 H        1 ZINC001191196975    0.4000
51     H51     9.5070  -13.7301   11.3172 H        1 ZINC001191196975    0.4200
52     H52     5.2794   -6.6772    2.6468 H        1 ZINC001191196975    0.0800
53     H53     6.0104   -5.1650    3.2663 H        1 ZINC001191196975    0.0800
@<TRIPOS>BOND
1     1     2     2
2     1     26    1
3     1     27    1
4     2     3     1
5     2     28    1
6     3     4     1
7     3     29    1
8     3     30    1
9     4     5     am
10    4     31    1
11    5     6     2
12    5     7     1
13    7     8     1
14    7     32    1
15    7     33    1
16    8     9     1
17    8     10    1
18    9     34    1
19    9     35    1
20    9     36    1
21    10    11    1
22    10    25    1
23    10    12    1
24    12    13    1
25    12    37    1
26    12    38    1
27    13    14    1
28    13    39    1
29    13    40    1
30    14    15    am
31    14    25    1
32    15    16    2
33    15    17    1
34    17    18    1
35    17    41    1
36    17    42    1
37    18    19    1
38    18    43    1
39    18    44    1
40    19    20    1
41    19    45    1
42    19    46    1
43    20    21    1
44    20    47    1
45    20    48    1
46    21    22    am
47    21    49    1
48    22    23    am
49    22    24    2
50    23    50    1
51    23    51    1
52    25    52    1
53    25    53    1
@<TRIPOS>SUBSTRUCTURE
1   ZINC001191196975 1     RESIDUE    1   A     ZIN   1
@<TRIPOS>MOLECULE
ZINC000046390957
53	55	1	0	0
SMALL
USER_CHARGES
@<TRIPOS>ATOM
1      C1     -2.0202    0.4994    0.7421 C.3      1 ZINC000046390957   -0.1100
2      C2     -0.9496   -0.4875    0.3536 C.ar     1 ZINC000046390957   -0.0600
3      C3     -1.0419   -1.1725   -0.8422 C.ar     1 ZINC000046390957   -0.1200
4      C4     -0.0603   -2.0786   -1.1992 C.ar     1 ZINC000046390957   -0.1100
5      C5      1.0168   -2.3016   -0.3611 C.ar     1 ZINC000046390957   -0.1200
6      C6      1.1152   -1.6195    0.8358 C.ar     1 ZINC000046390957   -0.0800
7      C7      2.2896   -1.8628    1.7483 C.3      1 ZINC000046390957   -0.1100
8      C8      0.1337   -0.7050    1.1948 C.ar     1 ZINC000046390957    0.1300
9      N9      0.2307   -0.0119    2.4065 N.am     1 ZINC000046390957   -0.6800
10     C10     0.4210    1.3223    2.4063 C.2      1 ZINC000046390957    0.5200
11     O11     0.4125    1.9360    1.3601 O.2      1 ZINC000046390957   -0.4900
12     C12     0.6445    2.0518    3.7059 C.3      1 ZINC000046390957    0.0700
13     H13    -0.1772    1.8370    4.3891 H        1 ZINC000046390957    0.1100
14     C14     1.9618    1.5882    4.3309 C.3      1 ZINC000046390957   -0.1700
15     O15     0.7043    3.4807    3.4549 O.3      1 ZINC000046390957   -0.3300
16     C16     0.2859    4.2905    4.4401 C.2      1 ZINC000046390957    0.4700
17     O17    -0.1170    3.8210    5.4780 O.2      1 ZINC000046390957   -0.4800
18     C18     0.3187    5.7854    4.2519 C.3      1 ZINC000046390957   -0.0300
19     C19    -0.1997    6.4598    5.4959 C.2      1 ZINC000046390957    0.0800
20     C20     0.4970    7.3878    6.1588 C.2      1 ZINC000046390957   -0.2500
21     S21    -0.4680    7.9077    7.5383 S.3      1 ZINC000046390957    0.1300
22     C22    -1.7123    6.8255    7.0865 C.2      1 ZINC000046390957    0.0600
23     C23    -3.0124    6.6481    7.8276 C.3      1 ZINC000046390957    0.0000
24     C24    -2.8526    5.5733    8.8719 C.ar     1 ZINC000046390957   -0.0900
25     C25    -3.1157    4.2544    8.5522 C.ar     1 ZINC000046390957   -0.0900
26     C26    -2.9692    3.2686    9.5101 C.ar     1 ZINC000046390957   -0.1200
27     C27    -2.5592    3.6016   10.7875 C.ar     1 ZINC000046390957   -0.1200
28     C28    -2.2952    4.9204   11.1070 C.ar     1 ZINC000046390957   -0.1200
29     C29    -2.4376    5.9057   10.1479 C.ar     1 ZINC000046390957   -0.1100
30     N30    -1.3793    6.1869    6.0159 N.2      1 ZINC000046390957   -0.4500
31     H31    -1.8179    1.4601    0.2686 H        1 ZINC000046390957    0.0800
32     H32    -2.9916    0.1298    0.4136 H        1 ZINC000046390957    0.0700
33     H33    -2.0255    0.6221    1.8252 H        1 ZINC000046390957    0.0600
34     H34    -1.8819   -1.0005   -1.4989 H        1 ZINC000046390957    0.1300
35     H35    -0.1351   -2.6135   -2.1344 H        1 ZINC000046390957    0.1300
36     H36     1.7817   -3.0102   -0.6426 H        1 ZINC000046390957    0.1300
37     H37     3.0938   -1.1710    1.4978 H        1 ZINC000046390957    0.0700
38     H38     1.9844   -1.7059    2.7829 H        1 ZINC000046390957    0.0600
39     H39     2.6399   -2.8875    1.6243 H        1 ZINC000046390957    0.0700
40     H40     0.1609   -0.4917    3.2466 H        1 ZINC000046390957    0.4100
41     H41     1.9169    0.5155    4.5194 H        1 ZINC000046390957    0.0800
42     H42     2.7836    1.8030    3.6478 H        1 ZINC000046390957    0.0800
43     H43     2.1235    2.1158    5.2710 H        1 ZINC000046390957    0.0800
44     H44     1.3437    6.1057    4.0651 H        1 ZINC000046390957    0.1200
45     H45    -0.3077    6.0584    3.4027 H        1 ZINC000046390957    0.1300
46     H46     1.4782    7.7543    5.8955 H        1 ZINC000046390957    0.1800
47     H47    -3.2863    7.5861    8.3106 H        1 ZINC000046390957    0.1000
48     H48    -3.7944    6.3591    7.1255 H        1 ZINC000046390957    0.1000
49     H49    -3.4360    3.9943    7.5541 H        1 ZINC000046390957    0.1200
50     H50    -3.1754    2.2383    9.2605 H        1 ZINC000046390957    0.1200
51     H51    -2.4454    2.8314   11.5361 H        1 ZINC000046390957    0.1200
52     H52    -1.9752    5.1806   12.1051 H        1 ZINC000046390957    0.1200
53     H53    -2.2314    6.9360   10.3975 H        1 ZINC000046390957    0.1200
@<TRIPOS>BOND
1     1     2     1
2     1     31    1
3     1     32    1
4     1     33    1
5     2     8     ar
6     2     3     ar
7     3     4     ar
8     3     34    1
9     4     5     ar
10    4     35    1
11    5     6     ar
12    5     36    1
13    6     7     1
14    6     8     ar
15    7     37    1
16    7     38    1
17    7     39    1
18    8     9     1
19    9     10    am
20    9     40    1
21    10    11    2
22    10    12    1
23    12    13    1
24    12    14    1
25    12    15    1
26    14    41    1
27    14    42    1
28    14    43    1
29    15    16    1
30    16    17    2
31    16    18    1
32    18    19    1
33    18    44    1
34    18    45    1
35    19    30    1
36    19    20    2
37    20    21    1
38    20    46    1
39    21    22    1
40    22    23    1
41    22    30    2
42    23    24    1
43    23    47    1
44    23    48    1
45    24    29    ar
46    24    25    ar
47    25    26    ar
48    25    49    1
49    26    27    ar
50    26    50    1
51    27    28    ar
52    27    51    1
53    28    29    ar
54    28    52    1
55    29    53    1
@<TRIPOS>SUBSTRUCTURE
1   ZINC000046390957 1     RESIDUE    1   A     ZIN   1
@<TRIPOS>MOLECULE
ZINC001356153960
44	46	1	0	0
SMALL
USER_CHARGES
@<TRIPOS>ATOM
1      O1      1.5981    3.4235    0.4444 O.2      1 ZINC001356153960   -0.5200
2      C2      0.8760    2.4541    0.3376 C.2      1 ZINC001356153960    0.5100
3      N3     -0.4524    2.5791    0.5284 N.am     1 ZINC001356153960   -0.7000
4      C4     -1.0244    3.8852    0.8646 C.3      1 ZINC001356153960    0.1300
5      C5     -2.5400    3.7519    1.0263 C.3      1 ZINC001356153960   -0.0800
6      H6     -2.9778    3.3004    0.1361 H        1 ZINC001356153960    0.0900
7      C7     -2.8684    2.9285    2.2500 C.2      1 ZINC001356153960   -0.1700
8      C8     -3.8264    3.4798    2.9442 C.2      1 ZINC001356153960   -0.1600
9      C9     -4.2967    4.7628    2.2992 C.3      1 ZINC001356153960   -0.1000
10     C10    -3.1765    5.1348    1.2974 C.3      1 ZINC001356153960   -0.1200
11     C11     1.4602    1.1205    0.0007 C.2      1 ZINC001356153960    0.5100
12     O12     0.7537    0.1339   -0.0107 O.2      1 ZINC001356153960   -0.5100
13     N13     2.7718    1.0135   -0.2905 N.am     1 ZINC001356153960   -0.5500
14     C14     3.6518    2.1756   -0.1444 C.3      1 ZINC001356153960    0.1300
15     C15     4.1055    2.2852    1.2884 C.ar     1 ZINC001356153960   -0.1600
16     C16     3.7062    3.3604    2.0591 C.ar     1 ZINC001356153960   -0.0300
17     C17     4.1170    3.4593    3.3752 C.ar     1 ZINC001356153960   -0.1700
18     C18     4.9385    2.4868    3.9195 C.ar     1 ZINC001356153960    0.1400
19     F19     5.3441    2.5863    5.2043 F        1 ZINC001356153960   -0.1300
20     C20     5.3439    1.4120    3.1466 C.ar     1 ZINC001356153960   -0.2000
21     C21     4.9273    1.3111    1.8307 C.ar     1 ZINC001356153960    0.1500
22     F22     5.3224    0.2631    1.0753 F        1 ZINC001356153960   -0.1200
23     C23     3.3176   -0.2650   -0.7530 C.3      1 ZINC001356153960    0.0700
24     C24     2.3238   -1.3264   -1.2293 C.3      1 ZINC001356153960   -0.1900
25     C25     3.0484   -1.5009    0.1078 C.3      1 ZINC001356153960   -0.1800
26     H26    -1.0296    1.8043    0.4431 H        1 ZINC001356153960    0.4100
27     H27    -0.5895    4.2430    1.7979 H        1 ZINC001356153960    0.0800
28     H28    -0.8051    4.5943    0.0663 H        1 ZINC001356153960    0.0800
29     H29    -2.3749    2.0053    2.5155 H        1 ZINC001356153960    0.1200
30     H30    -4.2298    3.0727    3.8595 H        1 ZINC001356153960    0.1300
31     H31    -5.2368    4.6004    1.7720 H        1 ZINC001356153960    0.0800
32     H32    -4.4133    5.5446    3.0498 H        1 ZINC001356153960    0.0700
33     H33    -2.4559    5.8150    1.7516 H        1 ZINC001356153960    0.0800
34     H34    -3.5917    5.5604    0.3838 H        1 ZINC001356153960    0.0800
35     H35     4.5201    2.0576   -0.7925 H        1 ZINC001356153960    0.0900
36     H36     3.1098    3.0791   -0.4240 H        1 ZINC001356153960    0.1400
37     H37     3.0693    4.1220    1.6340 H        1 ZINC001356153960    0.1600
38     H38     3.8010    4.2980    3.9778 H        1 ZINC001356153960    0.1400
39     H39     5.9849    0.6531    3.5702 H        1 ZINC001356153960    0.1500
40     H40     4.2777   -0.2083   -1.2659 H        1 ZINC001356153960    0.1400
41     H41     1.2640   -1.0735   -1.1985 H        1 ZINC001356153960    0.1400
42     H42     2.6304   -1.9682   -2.0552 H        1 ZINC001356153960    0.0900
43     H43     3.8313   -2.2574    0.1609 H        1 ZINC001356153960    0.1000
44     H44     2.4652   -1.3627    1.0183 H        1 ZINC001356153960    0.0900
@<TRIPOS>BOND
1     1     2     2
2     2     3     am
3     2     11    1
4     3     4     1
5     3     26    1
6     4     5     1
7     4     27    1
8     4     28    1
9     5     6     1
10    5     10    1
11    5     7     1
12    7     8     2
13    7     29    1
14    8     9     1
15    8     30    1
16    9     10    1
17    9     31    1
18    9     32    1
19    10    33    1
20    10    34    1
21    11    12    2
22    11    13    am
23    13    14    1
24    13    23    1
25    14    15    1
26    14    35    1
27    14    36    1
28    15    21    ar
29    15    16    ar
30    16    17    ar
31    16    37    1
32    17    18    ar
33    17    38    1
34    18    19    1
35    18    20    ar
36    20    21    ar
37    20    39    1
38    21    22    1
39    23    25    1
40    23    24    1
41    23    40    1
42    24    25    1
43    24    41    1
44    24    42    1
45    25    43    1
46    25    44    1
@<TRIPOS>SUBSTRUCTURE
1   ZINC001356153960 1     RESIDUE    1   A     ZIN   1
@<TRIPOS>MOLECULE
ZINC000517001504
49	52	1	0	0
SMALL
USER_CHARGES
@<TRIPOS>ATOM
1      O1      0.1608   -0.0034    0.0248 O.2      1 ZINC000517001504   -0.5200
2      C2     -0.0067    1.1973    0.0597 C.2      1 ZINC000517001504    0.5400
3      N3      1.0557    2.0245    0.1201 N.am     1 ZINC000517001504   -0.6100
4      C4      0.8840    3.4843    0.0502 C.3      1 ZINC000517001504    0.0600
5      C5      1.8393    4.0329   -1.0157 C.3      1 ZINC000517001504    0.0500
6      O6      3.1624    3.5613   -0.7497 O.3      1 ZINC000517001504   -0.3700
7      C7      3.3018    2.1401   -0.8177 C.3      1 ZINC000517001504    0.1200
8      H8      2.9895    1.7903   -1.8017 H        1 ZINC000517001504    0.0800
9      C9      4.7422    1.7639   -0.5835 C.ar     1 ZINC000517001504   -0.0600
10     C10     5.4811    2.4241    0.3804 C.ar     1 ZINC000517001504   -0.0900
11     C11     6.8023    2.0790    0.5952 C.ar     1 ZINC000517001504   -0.0700
12     C12     7.3845    1.0734   -0.1536 C.ar     1 ZINC000517001504   -0.1800
13     C13     8.8251    0.6975    0.0802 C.3      1 ZINC000517001504    0.5100
14     F14     8.8931   -0.3069    1.0517 F        1 ZINC000517001504   -0.1800
15     F15     9.3848    0.2303   -1.1137 F        1 ZINC000517001504   -0.1800
16     F16     9.5345    1.8203    0.5199 F        1 ZINC000517001504   -0.1800
17     C17     6.6453    0.4123   -1.1166 C.ar     1 ZINC000517001504   -0.0700
18     C18     5.3229    0.7548   -1.3287 C.ar     1 ZINC000517001504   -0.1000
19     C19     2.4209    1.4947    0.2641 C.3      1 ZINC000517001504    0.0900
20     C20    -1.4025    1.7645    0.0293 C.3      1 ZINC000517001504   -0.0600
21     C21    -1.7707    2.3435   -1.3124 C.ar     1 ZINC000517001504   -0.0700
22     C22    -2.1953    3.6557   -1.4059 C.ar     1 ZINC000517001504   -0.1200
23     C23    -2.5330    4.1868   -2.6367 C.ar     1 ZINC000517001504   -0.1100
24     C24    -2.4457    3.4059   -3.7740 C.ar     1 ZINC000517001504   -0.1100
25     C25    -2.0202    2.0940   -3.6805 C.ar     1 ZINC000517001504   -0.1100
26     C26    -1.6784    1.5642   -2.4504 C.ar     1 ZINC000517001504   -0.1000
27     C27    -2.4669    0.8164    0.6079 C.3      1 ZINC000517001504   -0.1600
28     C28    -2.1884    1.4622    1.9507 C.2      1 ZINC000517001504    0.3600
29     O29    -2.2962    1.1341    3.1078 O.2      1 ZINC000517001504   -0.4100
30     C30    -1.7154    2.6981    1.2114 C.3      1 ZINC000517001504   -0.1900
31     H31    -0.1447    3.7203   -0.2222 H        1 ZINC000517001504    0.1000
32     H32     1.1192    3.9283    1.0175 H        1 ZINC000517001504    0.0800
33     H33     1.5217    3.6900   -2.0004 H        1 ZINC000517001504    0.0600
34     H34     1.8287    5.1225   -0.9880 H        1 ZINC000517001504    0.1100
35     H35     5.0262    3.2097    0.9654 H        1 ZINC000517001504    0.1400
36     H36     7.3798    2.5953    1.3478 H        1 ZINC000517001504    0.1400
37     H37     7.1001   -0.3736   -1.7013 H        1 ZINC000517001504    0.1400
38     H38     4.7454    0.2382   -2.0811 H        1 ZINC000517001504    0.1400
39     H39     2.8133    1.7393    1.2511 H        1 ZINC000517001504    0.0800
40     H40     2.4093    0.4130    0.1308 H        1 ZINC000517001504    0.1100
41     H41    -2.2636    4.2658   -0.5174 H        1 ZINC000517001504    0.1300
42     H42    -2.8655    5.2118   -2.7097 H        1 ZINC000517001504    0.1300
43     H43    -2.7102    3.8206   -4.7354 H        1 ZINC000517001504    0.1300
44     H44    -1.9522    1.4837   -4.5690 H        1 ZINC000517001504    0.1300
45     H45    -1.3459    0.5392   -2.3774 H        1 ZINC000517001504    0.1200
46     H46    -3.4723    1.0054    0.2316 H        1 ZINC000517001504    0.1300
47     H47    -2.1868   -0.2360    0.5620 H        1 ZINC000517001504    0.1100
48     H48    -0.8308    3.1591    1.6509 H        1 ZINC000517001504    0.1000
49     H49    -2.5099    3.4150    1.0044 H        1 ZINC000517001504    0.1400
@<TRIPOS>BOND
1     1     2     2
2     2     3     am
3     2     20    1
4     3     19    1
5     3     4     1
6     4     5     1
7     4     31    1
8     4     32    1
9     5     6     1
10    5     33    1
11    5     34    1
12    6     7     1
13    7     8     1
14    7     9     1
15    7     19    1
16    9     18    ar
17    9     10    ar
18    10    11    ar
19    10    35    1
20    11    12    ar
21    11    36    1
22    12    13    1
23    12    17    ar
24    13    14    1
25    13    15    1
26    13    16    1
27    17    18    ar
28    17    37    1
29    18    38    1
30    19    39    1
31    19    40    1
32    20    30    1
33    20    21    1
34    20    27    1
35    21    26    ar
36    21    22    ar
37    22    23    ar
38    22    41    1
39    23    24    ar
40    23    42    1
41    24    25    ar
42    24    43    1
43    25    26    ar
44    25    44    1
45    26    45    1
46    27    28    1
47    27    46    1
48    27    47    1
49    28    29    2
50    28    30    1
51    30    48    1
52    30    49    1
@<TRIPOS>SUBSTRUCTURE
1   ZINC000517001504 1     RESIDUE    1   A     ZIN   1
@<TRIPOS>MOLECULE
ZINC000516003207
46	49	1	0	0
SMALL
USER_CHARGES
@<TRIPOS>ATOM
1      C1     -0.0173    1.4248    0.0099 C.3      1 ZINC000516003207    0.0300
2      O2      0.0021   -0.0041    0.0020 O.3      1 ZINC000516003207   -0.3600
3      C3      0.6734   -0.5824    1.1231 C.3      1 ZINC000516003207    0.0900
4      H4      1.3560    0.1120    1.6129 H        1 ZINC000516003207    0.0800
5      C5     -0.2681   -1.3138    2.0971 C.3      1 ZINC000516003207   -0.1700
6      C6     -0.0333   -2.5822    1.2568 C.3      1 ZINC000516003207    0.1500
7      H7     -0.7439   -2.7032    0.4393 H        1 ZINC000516003207    0.1200
8      N8      0.1248   -3.7980    2.0589 N.am     1 ZINC000516003207   -0.7200
9      C9     -0.8830   -4.6895    2.1369 C.2      1 ZINC000516003207    0.5600
10     O10    -1.9229   -4.4849    1.5418 O.2      1 ZINC000516003207   -0.5300
11     C11    -0.7235   -5.9166    2.9464 C.ar     1 ZINC000516003207   -0.1400
12     C12     0.4682   -6.1506    3.6352 C.ar     1 ZINC000516003207   -0.0800
13     C13     0.6177   -7.2965    4.3908 C.ar     1 ZINC000516003207   -0.1200
14     C14    -0.4088   -8.2169    4.4705 C.ar     1 ZINC000516003207   -0.0800
15     C15    -1.6044   -7.9945    3.7874 C.ar     1 ZINC000516003207   -0.0300
16     C16    -2.7054   -8.9850    3.8748 C.2      1 ZINC000516003207    0.1100
17     C17    -2.6562  -10.0678    4.6766 C.2      1 ZINC000516003207   -0.2600
18     S18    -4.1595  -10.9627    4.4698 S.3      1 ZINC000516003207    0.1400
19     C19    -4.7066   -9.8071    3.3356 C.2      1 ZINC000516003207    0.0600
20     C20    -6.0352   -9.8616    2.6263 C.3      1 ZINC000516003207   -0.0800
21     N21    -3.8264   -8.8804    3.1758 N.2      1 ZINC000516003207   -0.4700
22     C22    -1.7646   -6.8399    3.0284 C.ar     1 ZINC000516003207   -0.0300
23     C23     1.2943   -1.9484    0.8289 C.3      1 ZINC000516003207   -0.1100
24     C24     1.9161   -2.2591   -0.5331 C.3      1 ZINC000516003207   -0.1200
25     C25     3.2825   -2.0098    0.1308 C.3      1 ZINC000516003207   -0.1400
26     C26     2.6160   -2.3725    1.4703 C.3      1 ZINC000516003207   -0.1200
27     H27     1.0053    1.8021    0.0021 H        1 ZINC000516003207    0.0400
28     H28    -0.5445    1.7859   -0.8732 H        1 ZINC000516003207    0.0900
29     H29    -0.5275    1.7763    0.9067 H        1 ZINC000516003207    0.0400
30     H30     0.1235   -1.3844    3.1119 H        1 ZINC000516003207    0.0900
31     H31    -1.2960   -0.9528    2.0638 H        1 ZINC000516003207    0.0800
32     H32     0.9547   -3.9613    2.5337 H        1 ZINC000516003207    0.4000
33     H33     1.2744   -5.4344    3.5767 H        1 ZINC000516003207    0.1300
34     H34     1.5415   -7.4739    4.9215 H        1 ZINC000516003207    0.1400
35     H35    -0.2854   -9.1115    5.0629 H        1 ZINC000516003207    0.1300
36     H36    -1.8397  -10.3386    5.3296 H        1 ZINC000516003207    0.1800
37     H37    -6.5835  -10.7464    2.9495 H        1 ZINC000516003207    0.0800
38     H38    -6.6122   -8.9686    2.8666 H        1 ZINC000516003207    0.0900
39     H39    -5.8707   -9.9091    1.5498 H        1 ZINC000516003207    0.0900
40     H40    -2.6886   -6.6636    2.4978 H        1 ZINC000516003207    0.1500
41     H41     1.7684   -3.2895   -0.8566 H        1 ZINC000516003207    0.0800
42     H42     1.6653   -1.5313   -1.3048 H        1 ZINC000516003207    0.0800
43     H43     4.0528   -2.7162   -0.1783 H        1 ZINC000516003207    0.0700
44     H44     3.6118   -0.9722    0.0745 H        1 ZINC000516003207    0.0800
45     H45     2.9243   -1.7352    2.2991 H        1 ZINC000516003207    0.0700
46     H46     2.6650   -3.4347    1.7099 H        1 ZINC000516003207    0.0900
@<TRIPOS>BOND
1     1     2     1
2     1     27    1
3     1     28    1
4     1     29    1
5     2     3     1
6     3     4     1
7     3     23    1
8     3     5     1
9     5     6     1
10    5     30    1
11    5     31    1
12    6     7     1
13    6     8     1
14    6     23    1
15    8     9     am
16    8     32    1
17    9     10    2
18    9     11    1
19    11    22    ar
20    11    12    ar
21    12    13    ar
22    12    33    1
23    13    14    ar
24    13    34    1
25    14    15    ar
26    14    35    1
27    15    16    1
28    15    22    ar
29    16    21    1
30    16    17    2
31    17    18    1
32    17    36    1
33    18    19    1
34    19    20    1
35    19    21    2
36    20    37    1
37    20    38    1
38    20    39    1
39    22    40    1
40    23    26    1
41    23    24    1
42    24    25    1
43    24    41    1
44    24    42    1
45    25    26    1
46    25    43    1
47    25    44    1
48    26    45    1
49    26    46    1
@<TRIPOS>SUBSTRUCTURE
1   ZINC000516003207 1     RESIDUE    1   A     ZIN   1
@<TRIPOS>MOLECULE
ZINC001341052241
56	58	1	0	0
SMALL
USER_CHARGES
@<TRIPOS>ATOM
1      C1     -1.9251    0.8432    8.2213 C.3      1 ZINC001341052241   -0.1700
2      C2     -3.1916    0.0781    7.8321 C.3      1 ZINC001341052241    0.1100
3      N3     -4.2893    1.0253    7.6226 N.pl3    1 ZINC001341052241   -0.4500
4      C4     -5.2045    1.4460    8.5474 C.2      1 ZINC001341052241    0.1800
5      C5     -5.2759    1.0201    9.9912 C.3      1 ZINC001341052241    0.1500
6      O6     -4.4857    1.9045   10.7883 O.3      1 ZINC001341052241   -0.3700
7      C7     -4.4851    1.5872   12.1817 C.3      1 ZINC001341052241    0.0900
8      C8     -5.6332    2.3250   12.8732 C.3      1 ZINC001341052241   -0.1400
9      C9     -5.6326    1.9852   14.3650 C.3      1 ZINC001341052241   -0.1200
10     C10    -4.3022    2.4162   14.9857 C.3      1 ZINC001341052241   -0.1200
11     C11    -3.1541    1.6784   14.2941 C.3      1 ZINC001341052241   -0.1200
12     C12    -3.1547    2.0182   12.8023 C.3      1 ZINC001341052241   -0.1200
13     N13    -6.0029    2.2840    7.9491 N.2      1 ZINC001341052241   -0.2600
14     N14    -5.6537    2.4247    6.7202 N.2      1 ZINC001341052241   -0.3100
15     C15    -4.6109    1.6704    6.4640 C.2      1 ZINC001341052241    0.3500
16     N16    -3.9563    1.5553    5.2481 N.3      1 ZINC001341052241   -0.4600
17     C17    -4.8497    1.0079    4.2192 C.3      1 ZINC001341052241    0.0700
18     C18    -4.0574    0.7590    2.9337 C.3      1 ZINC001341052241   -0.1100
19     C19    -3.4441    2.0776    2.4546 C.3      1 ZINC001341052241   -0.0900
20     C20    -2.6005    1.8243    1.2035 C.3      1 ZINC001341052241    0.0700
21     O21    -2.1241    3.0699    0.6900 O.3      1 ZINC001341052241   -0.3900
22     C22    -1.3208    2.9450   -0.4852 C.3      1 ZINC001341052241    0.0300
23     C23    -2.5565    2.6510    3.5627 C.3      1 ZINC001341052241   -0.1100
24     C24    -3.3923    2.8451    4.8299 C.3      1 ZINC001341052241    0.0700
25     H25    -1.6654    1.5436    7.4276 H        1 ZINC001341052241    0.0600
26     H26    -2.1018    1.3917    9.1465 H        1 ZINC001341052241    0.0700
27     H27    -1.1057    0.1392    8.3672 H        1 ZINC001341052241    0.0800
28     H28    -3.4571   -0.6150    8.6304 H        1 ZINC001341052241    0.0900
29     H29    -3.0116   -0.4787    6.9125 H        1 ZINC001341052241    0.1000
30     H30    -6.3116    1.0539   10.3292 H        1 ZINC001341052241    0.0900
31     H31    -4.8946    0.0037   10.0894 H        1 ZINC001341052241    0.0700
32     H32    -4.6144    0.5124   12.3096 H        1 ZINC001341052241    0.0600
33     H33    -5.5039    3.3997   12.7453 H        1 ZINC001341052241    0.0700
34     H34    -6.5810    2.0179   12.4311 H        1 ZINC001341052241    0.0700
35     H35    -5.7620    0.9105   14.4930 H        1 ZINC001341052241    0.0600
36     H36    -6.4506    2.5109   14.8577 H        1 ZINC001341052241    0.0700
37     H37    -4.3018    2.1742   16.0485 H        1 ZINC001341052241    0.0600
38     H38    -4.1728    3.4909   14.8577 H        1 ZINC001341052241    0.0600
39     H39    -3.2834    0.6037   14.4221 H        1 ZINC001341052241    0.0600
40     H40    -2.2063    1.9855   14.7363 H        1 ZINC001341052241    0.0700
41     H41    -2.3367    1.4925   12.3096 H        1 ZINC001341052241    0.0700
42     H42    -3.0253    3.0929   12.6744 H        1 ZINC001341052241    0.0700
43     H43    -5.6520    1.7182    4.0195 H        1 ZINC001341052241    0.0600
44     H44    -5.2758    0.0683    4.5708 H        1 ZINC001341052241    0.0800
45     H45    -4.7240    0.3673    2.1655 H        1 ZINC001341052241    0.0800
46     H46    -3.2634    0.0382    3.1294 H        1 ZINC001341052241    0.0800
47     H47    -4.2393    2.7854    2.2206 H        1 ZINC001341052241    0.0800
48     H48    -3.2107    1.3295    0.4479 H        1 ZINC001341052241    0.0500
49     H49    -1.7528    1.1887    1.4593 H        1 ZINC001341052241    0.0500
50     H50    -0.4466    2.3326   -0.2644 H        1 ZINC001341052241    0.0400
51     H51    -0.9987    3.9338   -0.8119 H        1 ZINC001341052241    0.0900
52     H52    -1.9045    2.4734   -1.2758 H        1 ZINC001341052241    0.0400
53     H53    -1.7389    1.9600    3.7682 H        1 ZINC001341052241    0.0700
54     H54    -2.1508    3.6111    3.2437 H        1 ZINC001341052241    0.0800
55     H55    -4.2014    3.5468    4.6274 H        1 ZINC001341052241    0.0600
56     H56    -2.7599    3.2399    5.6251 H        1 ZINC001341052241    0.0800
@<TRIPOS>BOND
1     1     2     1
2     1     25    1
3     1     26    1
4     1     27    1
5     2     3     1
6     2     28    1
7     2     29    1
8     3     15    1
9     3     4     1
10    4     5     1
11    4     13    2
12    5     6     1
13    5     30    1
14    5     31    1
15    6     7     1
16    7     12    1
17    7     8     1
18    7     32    1
19    8     9     1
20    8     33    1
21    8     34    1
22    9     10    1
23    9     35    1
24    9     36    1
25    10    11    1
26    10    37    1
27    10    38    1
28    11    12    1
29    11    39    1
30    11    40    1
31    12    41    1
32    12    42    1
33    13    14    1
34    14    15    2
35    15    16    1
36    16    24    1
37    16    17    1
38    17    18    1
39    17    43    1
40    17    44    1
41    18    19    1
42    18    45    1
43    18    46    1
44    19    20    1
45    19    23    1
46    19    47    1
47    20    21    1
48    20    48    1
49    20    49    1
50    21    22    1
51    22    50    1
52    22    51    1
53    22    52    1
54    23    24    1
55    23    53    1
56    23    54    1
57    24    55    1
58    24    56    1
@<TRIPOS>SUBSTRUCTURE
1   ZINC001341052241 1     RESIDUE    1   A     ZIN   1
@<TRIPOS>MOLECULE
ZINC000432058199
52	55	1	0	0
SMALL
USER_CHARGES
@<TRIPOS>ATOM
1      C1     -0.0173    1.4248    0.0099 C.3      1 ZINC000432058199    0.0300
2      O2      0.0021   -0.0041    0.0020 O.3      1 ZINC000432058199   -0.3100
3      C3     -1.2003   -0.6375    0.0101 C.ar     1 ZINC000432058199    0.1300
4      C4     -2.3744    0.1026    0.0195 C.ar     1 ZINC000432058199   -0.1900
5      C5     -3.5996   -0.5377    0.0277 C.ar     1 ZINC000432058199   -0.0800
6      C6     -3.6620   -1.9166    0.0267 C.ar     1 ZINC000432058199   -0.1100
7      C7     -2.4877   -2.6671    0.0168 C.ar     1 ZINC000432058199    0.0100
8      C8     -2.5521   -4.1500    0.0152 C.2      1 ZINC000432058199    0.2100
9      N9     -1.5346   -4.9711    0.0121 N.2      1 ZINC000432058199   -0.3700
10     O10    -1.9255   -6.1193    0.0115 O.3      1 ZINC000432058199    0.1200
11     C11    -3.2619   -6.1478    0.0142 C.2      1 ZINC000432058199    0.1600
12     C12    -4.1309   -7.3790    0.0153 C.3      1 ZINC000432058199    0.2500
13     H13    -5.1520   -7.1032   -0.2480 H        1 ZINC000432058199    0.1500
14     C14    -4.1166   -8.0121    1.4081 C.3      1 ZINC000432058199   -0.1700
15     N15    -3.6169   -8.3404   -0.9634 N.am     1 ZINC000432058199   -0.5800
16     C16    -2.3927   -8.8782   -0.9173 C.2      1 ZINC000432058199    0.7000
17     O17    -1.5751   -8.6237   -0.0548 O.2      1 ZINC000432058199   -0.5100
18     N18    -2.1680   -9.7321   -1.9321 N.am     1 ZINC000432058199   -0.7200
19     C19    -3.3977   -9.7560   -2.7429 C.3      1 ZINC000432058199    0.1400
20     H20    -3.1961   -9.4075   -3.7558 H        1 ZINC000432058199    0.1400
21     C21    -3.9891  -11.1419   -2.7686 C.ar     1 ZINC000432058199   -0.1000
22     C22    -3.9715  -11.9221   -1.6275 C.ar     1 ZINC000432058199   -0.1000
23     C23    -4.5139  -13.1934   -1.6511 C.ar     1 ZINC000432058199   -0.0800
24     C24    -4.4944  -14.0441   -0.4074 C.3      1 ZINC000432058199   -0.1200
25     C25    -5.0747  -13.6841   -2.8154 C.ar     1 ZINC000432058199   -0.1100
26     C26    -5.0926  -12.9037   -3.9563 C.ar     1 ZINC000432058199   -0.0800
27     C27    -5.7035  -13.4389   -5.2258 C.3      1 ZINC000432058199   -0.1200
28     C28    -4.5540  -11.6309   -3.9316 C.ar     1 ZINC000432058199   -0.1000
29     C29    -4.3209   -8.7966   -2.0182 C.2      1 ZINC000432058199    0.5300
30     O30    -5.4546   -8.4975   -2.3265 O.2      1 ZINC000432058199   -0.4500
31     N31    -3.6741   -4.9046    0.0225 N.2      1 ZINC000432058199   -0.4500
32     C32    -1.2540   -2.0219    0.0032 C.ar     1 ZINC000432058199   -0.1200
33     H33     1.0053    1.8021    0.0021 H        1 ZINC000432058199    0.1000
34     H34    -0.5445    1.7859   -0.8732 H        1 ZINC000432058199    0.0600
35     H35    -0.5275    1.7763    0.9067 H        1 ZINC000432058199    0.0600
36     H36    -2.3307    1.1817    0.0207 H        1 ZINC000432058199    0.1400
37     H37    -4.5105    0.0426    0.0354 H        1 ZINC000432058199    0.1400
38     H38    -4.6207   -2.4139    0.0338 H        1 ZINC000432058199    0.1400
39     H39    -3.0955   -8.2879    1.6714 H        1 ZINC000432058199    0.0900
40     H40    -4.4990   -7.2968    2.1363 H        1 ZINC000432058199    0.0900
41     H41    -4.7452   -8.9026    1.4088 H        1 ZINC000432058199    0.0900
42     H42    -1.3546  -10.2339   -2.0981 H        1 ZINC000432058199    0.4500
43     H43    -3.5338  -11.5385   -0.7178 H        1 ZINC000432058199    0.1200
44     H44    -5.4018  -13.8652    0.1695 H        1 ZINC000432058199    0.0700
45     H45    -4.4435  -15.0962   -0.6876 H        1 ZINC000432058199    0.0700
46     H46    -3.6238  -13.7862    0.1956 H        1 ZINC000432058199    0.0700
47     H47    -5.4984  -14.6773   -2.8338 H        1 ZINC000432058199    0.1300
48     H48    -6.7628  -13.1839   -5.2548 H        1 ZINC000432058199    0.0700
49     H49    -5.1997  -12.9974   -6.0856 H        1 ZINC000432058199    0.0700
50     H50    -5.5897  -14.5226   -5.2550 H        1 ZINC000432058199    0.0700
51     H51    -4.5680  -11.0212   -4.8229 H        1 ZINC000432058199    0.1300
52     H52    -0.3412   -2.5991   -0.0045 H        1 ZINC000432058199    0.1400
@<TRIPOS>BOND
1     1     2     1
2     1     33    1
3     1     34    1
4     1     35    1
5     2     3     1
6     3     32    ar
7     3     4     ar
8     4     5     ar
9     4     36    1
10    5     6     ar
11    5     37    1
12    6     7     ar
13    6     38    1
14    7     8     1
15    7     32    ar
16    8     31    1
17    8     9     2
18    9     10    1
19    10    11    1
20    11    12    1
21    11    31    2
22    12    13    1
23    12    14    1
24    12    15    1
25    14    39    1
26    14    40    1
27    14    41    1
28    15    29    am
29    15    16    am
30    16    17    2
31    16    18    am
32    18    19    1
33    18    42    1
34    19    20    1
35    19    21    1
36    19    29    1
37    21    28    ar
38    21    22    ar
39    22    23    ar
40    22    43    1
41    23    24    1
42    23    25    ar
43    24    44    1
44    24    45    1
45    24    46    1
46    25    26    ar
47    25    47    1
48    26    27    1
49    26    28    ar
50    27    48    1
51    27    49    1
52    27    50    1
53    28    51    1
54    29    30    2
55    32    52    1
@<TRIPOS>SUBSTRUCTURE
1   ZINC000432058199 1     RESIDUE    1   A     ZIN   1
@<TRIPOS>MOLECULE
ZINC000540473851
51	54	1	0	0
SMALL
USER_CHARGES
@<TRIPOS>ATOM
1      C1     -1.6335    0.9073   -0.1866 C.3      1 ZINC000540473851   -0.0800
2      C2     -0.6911   -0.2642   -0.0842 C.2      1 ZINC000540473851    0.1500
3      C3      0.0236   -0.7417   -1.1505 C.2      1 ZINC000540473851   -0.3100
4      C4     -0.0068   -0.2129   -2.5196 C.2      1 ZINC000540473851    0.6000
5      O5     -0.1295    0.9830   -2.7072 O.2      1 ZINC000540473851   -0.5100
6      N6      0.1012   -1.0521   -3.5686 N.am     1 ZINC000540473851   -0.6100
7      C7      0.1176   -2.5094   -3.3710 C.3      1 ZINC000540473851    0.1000
8      C8     -0.9258   -3.1384   -4.3005 C.3      1 ZINC000540473851    0.0400
9      N9     -0.6788   -2.6958   -5.6793 N.3      1 ZINC000540473851   -0.5300
10     C10    -1.5480   -3.4088   -6.6248 C.3      1 ZINC000540473851    0.1200
11     H11    -2.5915   -3.2142   -6.3768 H        1 ZINC000540473851    0.0500
12     C12    -1.2743   -4.9115   -6.5356 C.3      1 ZINC000540473851   -0.1400
13     C13    -1.2667   -2.9293   -8.0255 C.ar     1 ZINC000540473851   -0.0500
14     C14     0.0342   -2.6866   -8.4244 C.ar     1 ZINC000540473851   -0.1000
15     C15     0.2939   -2.2466   -9.7092 C.ar     1 ZINC000540473851   -0.0900
16     C16    -0.7472   -2.0490  -10.5960 C.ar     1 ZINC000540473851   -0.1500
17     C17    -2.0510   -2.2923  -10.1976 C.ar     1 ZINC000540473851    0.1000
18     F18    -3.0696   -2.0995  -11.0638 F        1 ZINC000540473851   -0.1400
19     C19    -2.3093   -2.7379   -8.9126 C.ar     1 ZINC000540473851   -0.1500
20     C20    -0.8409   -1.2415   -5.8092 C.3      1 ZINC000540473851    0.0400
21     C21     0.1998   -0.5349   -4.9420 C.3      1 ZINC000540473851    0.1200
22     S22     0.9864   -2.1044   -0.5840 S.3      1 ZINC000540473851    0.2800
23     C23     0.3550   -1.9103    0.9925 C.2      1 ZINC000540473851    0.0800
24     C24     0.7113   -2.7554    2.1535 C.ar     1 ZINC000540473851    0.3800
25     N25     1.5854   -3.7408    1.9935 N.ar     1 ZINC000540473851   -0.5100
26     C26     1.9251   -4.5138    3.0098 C.ar     1 ZINC000540473851    0.1600
27     C27     1.3561   -4.2847    4.2544 C.ar     1 ZINC000540473851   -0.2100
28     C28     0.4458   -3.2459    4.3868 C.ar     1 ZINC000540473851    0.1500
29     N29     0.1534   -2.5066    3.3314 N.ar     1 ZINC000540473851   -0.4700
30     N30    -0.4791   -0.9105    1.0301 N.2      1 ZINC000540473851   -0.4300
31     H31    -1.0892    1.8302    0.0138 H        1 ZINC000540473851    0.0900
32     H32    -2.0573    0.9461   -1.1901 H        1 ZINC000540473851    0.0800
33     H33    -2.4358    0.7930    0.5424 H        1 ZINC000540473851    0.0800
34     H34     1.1060   -2.9006   -3.6122 H        1 ZINC000540473851    0.0900
35     H35    -0.1282   -2.7412   -2.3347 H        1 ZINC000540473851    0.0900
36     H36    -0.8515   -4.2247   -4.2485 H        1 ZINC000540473851    0.1000
37     H37    -1.9234   -2.8264   -3.9915 H        1 ZINC000540473851    0.0400
38     H38    -0.2309   -5.1061   -6.7835 H        1 ZINC000540473851    0.0700
39     H39    -1.4778   -5.2583   -5.5224 H        1 ZINC000540473851    0.0600
40     H40    -1.9193   -5.4406   -7.2371 H        1 ZINC000540473851    0.0600
41     H41     0.8486   -2.8404   -7.7318 H        1 ZINC000540473851    0.1400
42     H42     1.3108   -2.0569  -10.0197 H        1 ZINC000540473851    0.1300
43     H43    -0.5442   -1.7047  -11.5993 H        1 ZINC000540473851    0.1300
44     H44    -3.3256   -2.9283   -8.6009 H        1 ZINC000540473851    0.1300
45     H45    -0.7050   -0.9520   -6.8512 H        1 ZINC000540473851    0.1000
46     H46    -1.8397   -0.9559   -5.4791 H        1 ZINC000540473851    0.0400
47     H47     0.0111    0.5386   -4.9451 H        1 ZINC000540473851    0.1000
48     H48     1.1979   -0.7352   -5.3315 H        1 ZINC000540473851    0.0800
49     H49     2.6368   -5.3146    2.8734 H        1 ZINC000540473851    0.1800
50     H50     1.6159   -4.9018    5.1018 H        1 ZINC000540473851    0.1600
51     H51    -0.0149   -3.0414    5.3419 H        1 ZINC000540473851    0.1800
@<TRIPOS>BOND
1     1     2     1
2     1     31    1
3     1     32    1
4     1     33    1
5     2     30    1
6     2     3     2
7     3     4     1
8     3     22    1
9     4     5     2
10    4     6     am
11    6     21    1
12    6     7     1
13    7     8     1
14    7     34    1
15    7     35    1
16    8     9     1
17    8     36    1
18    8     37    1
19    9     10    1
20    9     20    1
21    10    11    1
22    10    12    1
23    10    13    1
24    12    38    1
25    12    39    1
26    12    40    1
27    13    19    ar
28    13    14    ar
29    14    15    ar
30    14    41    1
31    15    16    ar
32    15    42    1
33    16    17    ar
34    16    43    1
35    17    18    1
36    17    19    ar
37    19    44    1
38    20    21    1
39    20    45    1
40    20    46    1
41    21    47    1
42    21    48    1
43    22    23    1
44    23    24    1
45    23    30    2
46    24    29    ar
47    24    25    ar
48    25    26    ar
49    26    27    ar
50    26    49    1
51    27    28    ar
52    27    50    1
53    28    29    ar
54    28    51    1
@<TRIPOS>SUBSTRUCTURE
1   ZINC000540473851 1     RESIDUE    1   A     ZIN   1
@<TRIPOS>MOLECULE
ZINC000942661662
50	52	1	0	0
SMALL
USER_CHARGES
@<TRIPOS>ATOM
1      C1      0.4833    0.8082    0.1332 C.3      1 ZINC000942661662   -0.1700
2      C2      0.1327   -0.6680   -0.0636 C.3      1 ZINC000942661662    0.1000
3      N3     -1.3225   -0.8334   -0.0268 N.am     1 ZINC000942661662   -0.6000
4      C4     -2.0508   -0.6427   -1.1446 C.2      1 ZINC000942661662    0.6000
5      O5     -3.2652   -0.6857   -1.0939 O.2      1 ZINC000942661662   -0.5200
6      C6     -1.3757   -0.3820   -2.4285 C.2      1 ZINC000942661662   -0.2400
7      C7     -1.6520    0.6147   -3.3180 C.2      1 ZINC000942661662    0.0700
8      C8     -2.7211    1.6651   -3.1609 C.3      1 ZINC000942661662   -0.0900
9      O9     -0.8133    0.5013   -4.3524 O.3      1 ZINC000942661662   -0.1700
10     C10     0.0165   -0.5401   -4.1844 C.2      1 ZINC000942661662   -0.0300
11     C11    -0.2597   -1.1380   -3.0153 C.2      1 ZINC000942661662   -0.1900
12     C12    -1.9859   -1.2062    1.2251 C.3      1 ZINC000942661662    0.1400
13     H13    -1.2615   -1.3098    2.0329 H        1 ZINC000942661662    0.1100
14     C14    -2.8136   -2.5068    1.0500 C.3      1 ZINC000942661662   -0.1400
15     C15    -3.9096   -2.3667    2.1274 C.3      1 ZINC000942661662    0.1000
16     N16    -4.0331   -0.9356    2.4408 N.am     1 ZINC000942661662   -0.6200
17     C17    -4.8704   -0.4003    3.3513 C.2      1 ZINC000942661662    0.6100
18     O18    -4.8874    0.8035    3.5285 O.2      1 ZINC000942661662   -0.5200
19     C19    -5.7610   -1.2687    4.1285 C.2      1 ZINC000942661662   -0.0600
20     C20    -6.6676   -0.8605    5.0836 C.2      1 ZINC000942661662   -0.0700
21     C21    -6.9281    0.5572    5.5231 C.3      1 ZINC000942661662   -0.0900
22     C22    -7.3003   -2.0100    5.5673 C.2      1 ZINC000942661662   -0.2100
23     C23    -6.7806   -3.0765    4.9138 C.2      1 ZINC000942661662    0.0500
24     C24    -7.1792   -4.5142    5.1266 C.3      1 ZINC000942661662   -0.0900
25     N25    -5.8481   -2.6392    4.0328 N.pl3    1 ZINC000942661662   -0.5400
26     C26    -3.0880   -0.1826    1.5955 C.3      1 ZINC000942661662    0.0900
27     H27     1.5660    0.9313    0.1058 H        1 ZINC000942661662    0.0700
28     H28     0.0303    1.3985   -0.6633 H        1 ZINC000942661662    0.0600
29     H29     0.1034    1.1465    1.0972 H        1 ZINC000942661662    0.0600
30     H30     0.5126   -1.0063   -1.0276 H        1 ZINC000942661662    0.0900
31     H31     0.5857   -1.2584    0.7329 H        1 ZINC000942661662    0.0800
32     H32    -2.3064    2.5312   -2.6450 H        1 ZINC000942661662    0.0900
33     H33    -3.0818    1.9663   -4.1444 H        1 ZINC000942661662    0.0900
34     H34    -3.5482    1.2576   -2.5796 H        1 ZINC000942661662    0.1000
35     H35     0.7869   -0.8451   -4.8771 H        1 ZINC000942661662    0.2100
36     H36     0.2322   -2.0028   -2.5950 H        1 ZINC000942661662    0.1600
37     H37    -3.2550   -2.5520    0.0544 H        1 ZINC000942661662    0.1000
38     H38    -2.1965   -3.3851    1.2396 H        1 ZINC000942661662    0.0900
39     H39    -4.8570   -2.7453    1.7438 H        1 ZINC000942661662    0.0700
40     H40    -3.6225   -2.9187    3.0223 H        1 ZINC000942661662    0.0700
41     H41    -7.7133    0.9911    4.9040 H        1 ZINC000942661662    0.0700
42     H42    -7.2437    0.5620    6.5664 H        1 ZINC000942661662    0.0600
43     H43    -6.0157    1.1440    5.4167 H        1 ZINC000942661662    0.0800
44     H44    -8.0669   -2.0417    6.3274 H        1 ZINC000942661662    0.1400
45     H45    -7.9975   -4.7679    4.4527 H        1 ZINC000942661662    0.0800
46     H46    -6.3264   -5.1617    4.9225 H        1 ZINC000942661662    0.0700
47     H47    -7.5019   -4.6529    6.1584 H        1 ZINC000942661662    0.0900
48     H48    -5.3251   -3.1991    3.4380 H        1 ZINC000942661662    0.4100
49     H49    -2.6612    0.6509    2.1534 H        1 ZINC000942661662    0.0800
50     H50    -3.5876    0.1780    0.6964 H        1 ZINC000942661662    0.1000
@<TRIPOS>BOND
1     1     2     1
2     1     27    1
3     1     28    1
4     1     29    1
5     2     3     1
6     2     30    1
7     2     31    1
8     3     4     am
9     3     12    1
10    4     5     2
11    4     6     1
12    6     11    1
13    6     7     2
14    7     8     1
15    7     9     1
16    8     32    1
17    8     33    1
18    8     34    1
19    9     10    1
20    10    11    2
21    10    35    1
22    11    36    1
23    12    13    1
24    12    26    1
25    12    14    1
26    14    15    1
27    14    37    1
28    14    38    1
29    15    16    1
30    15    39    1
31    15    40    1
32    16    17    am
33    16    26    1
34    17    18    2
35    17    19    1
36    19    25    1
37    19    20    2
38    20    21    1
39    20    22    1
40    21    41    1
41    21    42    1
42    21    43    1
43    22    23    2
44    22    44    1
45    23    24    1
46    23    25    1
47    24    45    1
48    24    46    1
49    24    47    1
50    25    48    1
51    26    49    1
52    26    50    1
@<TRIPOS>SUBSTRUCTURE
1   ZINC000942661662 1     RESIDUE    1   A     ZIN   1
@<TRIPOS>MOLECULE
ZINC000301324012
46	48	1	0	0
SMALL
USER_CHARGES
@<TRIPOS>ATOM
1      C1     -0.3669    2.0167    0.3994 C.3      1 ZINC000301324012   -0.1600
2      C2     -0.2519    0.4921    0.3413 C.3      1 ZINC000301324012    0.2000
3      H3      0.2755    0.1336    1.2253 H        1 ZINC000301324012    0.1100
4      N4     -1.5924   -0.0975    0.2999 N.am     1 ZINC000301324012   -0.7100
5      C5     -2.2659   -0.3212    1.4456 C.2      1 ZINC000301324012    0.5500
6      O6     -1.7612   -0.0337    2.5134 O.2      1 ZINC000301324012   -0.5300
7      C7     -3.6187   -0.9162    1.4037 C.ar     1 ZINC000301324012   -0.0700
8      C8     -4.1988   -1.2529    0.1797 C.ar     1 ZINC000301324012   -0.1100
9      C9     -5.4612   -1.8082    0.1476 C.ar     1 ZINC000301324012   -0.0200
10     C10    -6.1523   -2.0312    1.3253 C.ar     1 ZINC000301324012   -0.6600
11     S11    -7.7645   -2.7405    1.2754 S.o2     1 ZINC000301324012    2.6900
12     O12    -8.4130   -2.3477    2.4773 O.2      1 ZINC000301324012   -0.9400
13     O13    -8.2861   -2.4606   -0.0164 O.2      1 ZINC000301324012   -0.9400
14     N14    -7.5799   -4.3840    1.3592 N.am     1 ZINC000301324012   -1.0500
15     C15    -6.9625   -4.9619    2.4718 C.ar     1 ZINC000301324012    0.1600
16     C16    -7.1524   -4.4166    3.7345 C.ar     1 ZINC000301324012   -0.1600
17     C17    -6.5407   -4.9903    4.8324 C.ar     1 ZINC000301324012   -0.0800
18     C18    -5.7396   -6.1061    4.6754 C.ar     1 ZINC000301324012   -0.1200
19     C19    -5.5478   -6.6526    3.4193 C.ar     1 ZINC000301324012   -0.0900
20     C20    -6.1614   -6.0877    2.3177 C.ar     1 ZINC000301324012   -0.0600
21     Cl21   -5.9204   -6.7739    0.7414 Cl       1 ZINC000301324012   -0.0600
22     C22    -5.5828   -1.7002    2.5421 C.ar     1 ZINC000301324012   -0.0200
23     C23    -4.3190   -1.1491    2.5884 C.ar     1 ZINC000301324012   -0.0800
24     C24     0.5111    0.0927   -0.8953 C.ar     1 ZINC000301324012    0.1200
25     C25     1.8922    0.0609   -0.8651 C.ar     1 ZINC000301324012   -0.1600
26     C26     2.5848   -0.3084   -2.0083 C.ar     1 ZINC000301324012   -0.0700
27     C27     1.8586   -0.6333   -3.1436 C.ar     1 ZINC000301324012   -0.1700
28     C28     0.4782   -0.5787   -3.0987 C.ar     1 ZINC000301324012    0.1100
29     N29    -0.1473   -0.2278   -1.9922 N.ar     1 ZINC000301324012   -0.4900
30     H30     0.6304    2.4554    0.4303 H        1 ZINC000301324012    0.0700
31     H31    -0.8944    2.3752   -0.4845 H        1 ZINC000301324012    0.0600
32     H32    -0.9188    2.3056    1.2939 H        1 ZINC000301324012    0.0700
33     H33    -1.9951   -0.3270   -0.5522 H        1 ZINC000301324012    0.4100
34     H34    -3.6606   -1.0786   -0.7404 H        1 ZINC000301324012    0.1400
35     H35    -5.9112   -2.0692   -0.7989 H        1 ZINC000301324012    0.1500
36     H36    -7.9002   -4.9455    0.6360 H        1 ZINC000301324012    0.4300
37     H37    -7.7774   -3.5446    3.8582 H        1 ZINC000301324012    0.1700
38     H38    -6.6882   -4.5663    5.8147 H        1 ZINC000301324012    0.1400
39     H39    -5.2622   -6.5519    5.5355 H        1 ZINC000301324012    0.1400
40     H40    -4.9214   -7.5242    3.3002 H        1 ZINC000301324012    0.1400
41     H41    -6.1274   -1.8772    3.4578 H        1 ZINC000301324012    0.1500
42     H42    -3.8754   -0.8915    3.5389 H        1 ZINC000301324012    0.1500
43     H43     2.4256    0.3209    0.0373 H        1 ZINC000301324012    0.1400
44     H44     3.6643   -0.3418   -2.0141 H        1 ZINC000301324012    0.1400
45     H45     2.3651   -0.9250   -4.0518 H        1 ZINC000301324012    0.1400
46     H46    -0.0948   -0.8299   -3.9790 H        1 ZINC000301324012    0.1600
@<TRIPOS>BOND
1     1     2     1
2     1     30    1
3     1     31    1
4     1     32    1
5     2     3     1
6     2     4     1
7     2     24    1
8     4     5     am
9     4     33    1
10    5     6     2
11    5     7     1
12    7     23    ar
13    7     8     ar
14    8     9     ar
15    8     34    1
16    9     10    ar
17    9     35    1
18    10    11    1
19    10    22    ar
20    11    12    2
21    11    13    2
22    11    14    am
23    14    15    1
24    14    36    1
25    15    20    ar
26    15    16    ar
27    16    17    ar
28    16    37    1
29    17    18    ar
30    17    38    1
31    18    19    ar
32    18    39    1
33    19    20    ar
34    19    40    1
35    20    21    1
36    22    23    ar
37    22    41    1
38    23    42    1
39    24    29    ar
40    24    25    ar
41    25    26    ar
42    25    43    1
43    26    27    ar
44    26    44    1
45    27    28    ar
46    27    45    1
47    28    29    ar
48    28    46    1
@<TRIPOS>SUBSTRUCTURE
1   ZINC000301324012 1     RESIDUE    1   A     ZIN   1
@<TRIPOS>MOLECULE
ZINC000022858610
44	45	0	0	0
SMALL
USER_CHARGES
@<TRIPOS>ATOM
1 C1        0.1495     1.2525     0.0422 C.3    1 <0>       0.0100
2 N2       -0.0374    -0.2010     0.1430 N.3    1 <0>      -0.5300
3 C3        0.4757    -0.7104     1.4218 C.3    1 <0>       0.0200
4 C4       -1.4489    -0.5643    -0.0400 C.3    1 <0>       0.1500
5 H5       -1.5748    -1.6327     0.1352 H      1 <0>       0.1200
6 C6       -1.8811    -0.2274    -1.4685 C.3    1 <0>       0.1300
7 N7       -0.9808    -0.8848    -2.4190 N.am   1 <0>      -0.6800
8 C8       -1.1700    -0.7294    -3.7443 C.2    1 <0>       0.5100
9 O9       -2.0861    -0.0449    -4.1504 O.2    1 <0>      -0.5100
10 C10      -0.2521    -1.3996    -4.7133 C.2    1 <0>       0.5200
11 O11       0.6642    -2.0842    -4.3073 O.2    1 <0>      -0.4900
12 N12      -0.4413    -1.2442    -6.0387 N.am   1 <0>      -0.6500
13 C13       0.4752    -1.7863    -6.9435 C.ar   1 <0>       0.1900
14 C14       1.1161    -2.9837    -6.6520 C.ar   1 <0>      -0.1200
15 C15       2.0215    -3.5166    -7.5486 C.ar   1 <0>      -0.0700
16 C16       2.2901    -2.8596    -8.7353 C.ar   1 <0>      -0.1300
17 C17       1.6541    -1.6669    -9.0285 C.ar   1 <0>      -0.0500
18 C18       0.7432    -1.1316    -8.1395 C.ar   1 <0>      -0.2100
19 C19       0.0507     0.1679    -8.4598 C.3    1 <0>       0.5100
20 F20       0.4910     0.6371    -9.7020 F      1 <0>      -0.1700
21 F21      -1.3322    -0.0389    -8.5029 F      1 <0>      -0.1800
22 F22       0.3505     1.1120    -7.4718 F      1 <0>      -0.1700
23 C23      -2.2972     0.2084     0.9369 C.2    1 <0>      -0.0500
24 C24      -3.1583    -0.3231     1.8231 C.2    1 <0>      -0.1900
25 C25      -3.7350     0.7559     2.5316 C.2    1 <0>      -0.2100
26 C26      -3.1919     1.8823     2.0360 C.2    1 <0>      -0.0400
27 O27      -2.3174     1.5443     1.0743 O.3    1 <0>      -0.1700
28 H28       1.2145     1.4794    -0.0072 H      1 <0>       0.0700
29 H29      -0.3425     1.6206    -0.8581 H      1 <0>       0.0700
30 H30      -0.2848     1.7362     0.9172 H      1 <0>       0.0500
31 H31      -0.0569    -0.2317     2.2436 H      1 <0>       0.0300
32 H32       0.3248    -1.7888     1.4702 H      1 <0>       0.0700
33 H33       1.5400    -0.4885     1.5005 H      1 <0>       0.0800
34 H34      -2.9004    -0.5775    -1.6319 H      1 <0>       0.0900
35 H35      -1.8397     0.8518    -1.6157 H      1 <0>       0.0800
36 H36      -0.2485    -1.4319    -2.0945 H      1 <0>       0.4200
37 H37      -1.2136    -0.7561    -6.3644 H      1 <0>       0.4300
38 H38       0.9070    -3.4972    -5.7252 H      1 <0>       0.1500
39 H39       2.5204    -4.4474    -7.3225 H      1 <0>       0.1400
40 H40       2.9985    -3.2786    -9.4346 H      1 <0>       0.1400
41 H41       1.8668    -1.1560    -9.9559 H      1 <0>       0.1500
42 H42      -3.3691    -1.3727     1.9656 H      1 <0>       0.1500
43 H43      -4.4708     0.6887     3.3194 H      1 <0>       0.1500
44 H44      -3.4177     2.8877     2.3594 H      1 <0>       0.2000
@<TRIPOS>BOND
1    1    2 1
2    1   28 1
3    1   29 1
4    1   30 1
5    2    3 1
6    2    4 1
7    3   31 1
8    3   32 1
9    3   33 1
10    4    5 1
11    4    6 1
12    4   23 1
13    6    7 1
14    6   34 1
15    6   35 1
16    7    8 am
17    7   36 1
18    8    9 2
19    8   10 1
20   10   11 2
21   10   12 am
22   12   13 1
23   12   37 1
24   13   18 ar
25   13   14 ar
26   14   15 ar
27   14   38 1
28   15   16 ar
29   15   39 1
30   16   17 ar
31   16   40 1
32   17   18 ar
33   17   41 1
34   18   19 1
35   19   20 1
36   19   21 1
37   19   22 1
38   23   27 1
39   23   24 2
40   24   25 1
41   24   42 1
42   25   26 2
43   25   43 1
44   26   27 1
45   26   44 1
@<TRIPOS>MOLECULE
ZINC000252489163
45	46	1	0	0
SMALL
USER_CHARGES
@<TRIPOS>ATOM
1      C1      0.8173    1.4504   -0.0523 C.3      1 ZINC000252489163   -0.1100
2      C2      0.4707   -0.0162   -0.0409 C.ar     1 ZINC000252489163   -0.0600
3      C3      0.3865   -0.7142   -1.2294 C.ar     1 ZINC000252489163   -0.1300
4      C4      0.0675   -2.0659   -1.2181 C.ar     1 ZINC000252489163    0.1700
5      N5     -0.0181   -2.7763   -2.4208 N.am     1 ZINC000252489163   -0.6800
6      C6      0.1497   -4.1136   -2.4270 C.2      1 ZINC000252489163    0.7100
7      O7      0.2059   -4.7241   -1.3770 O.2      1 ZINC000252489163   -0.5500
8      N8      0.2552   -4.7741   -3.5971 N.am     1 ZINC000252489163   -0.6200
9      C9      0.3567   -4.0390   -4.8652 C.3      1 ZINC000252489163    0.1000
10     C10    -0.7291   -4.5480   -5.8184 C.3      1 ZINC000252489163   -0.1400
11     C11    -0.6061   -6.0668   -5.9608 C.3      1 ZINC000252489163   -0.1300
12     C12    -0.8133   -6.7273   -4.5959 C.3      1 ZINC000252489163    0.1400
13     H13    -1.7949   -6.4573   -4.2064 H        1 ZINC000252489163    0.0900
14     N14    -0.7273   -8.1828   -4.7388 N.am     1 ZINC000252489163   -1.1100
15     S15    -1.6819   -9.1641   -3.8070 S.o2     1 ZINC000252489163    2.6100
16     C16    -3.3741   -8.7919   -4.3441 C.3      1 ZINC000252489163   -0.6700
17     O17    -1.3141  -10.4809   -4.1942 O.2      1 ZINC000252489163   -0.9500
18     O18    -1.4674   -8.7038   -2.4798 O.2      1 ZINC000252489163   -0.9500
19     C19     0.2772   -6.2428   -3.6283 C.3      1 ZINC000252489163    0.1100
20     C20    -0.1659   -2.7110   -0.0110 C.ar     1 ZINC000252489163   -0.1000
21     C21    -0.0802   -2.0071    1.1745 C.ar     1 ZINC000252489163   -0.1600
22     C22    -0.3334   -2.7065    2.4852 C.3      1 ZINC000252489163    0.5100
23     F23    -0.6339   -4.0516    2.2455 F        1 ZINC000252489163   -0.1700
24     F24     0.8089   -2.6198    3.2883 F        1 ZINC000252489163   -0.1800
25     F25    -1.4101   -2.0973    3.1385 F        1 ZINC000252489163   -0.1800
26     C26     0.2428   -0.6628    1.1602 C.ar     1 ZINC000252489163   -0.0900
27     H27     1.8992    1.5685    0.0076 H        1 ZINC000252489163    0.0800
28     H28     0.4529    1.9027   -0.9746 H        1 ZINC000252489163    0.0700
29     H29     0.3504    1.9407    0.8020 H        1 ZINC000252489163    0.0700
30     H30     0.5683   -0.2096   -2.1668 H        1 ZINC000252489163    0.1300
31     H31    -0.1982   -2.3063   -3.2500 H        1 ZINC000252489163    0.4100
32     H32     0.2127   -2.9740   -4.6827 H        1 ZINC000252489163    0.0800
33     H33     1.3389   -4.2066   -5.3071 H        1 ZINC000252489163    0.0800
34     H34    -1.7114   -4.2986   -5.4174 H        1 ZINC000252489163    0.0700
35     H35    -0.6046   -4.0799   -6.7949 H        1 ZINC000252489163    0.0900
36     H36    -1.3620   -6.4286   -6.6578 H        1 ZINC000252489163    0.0800
37     H37     0.3853   -6.3171   -6.3385 H        1 ZINC000252489163    0.0800
38     H38    -0.1113   -8.5716   -5.3793 H        1 ZINC000252489163    0.4200
39     H39    -3.4755   -9.0150   -5.4062 H        1 ZINC000252489163    0.1300
40     H40    -4.0777   -9.4005   -3.7762 H        1 ZINC000252489163    0.1300
41     H41    -3.5859   -7.7365   -4.1728 H        1 ZINC000252489163    0.1300
42     H42     1.2512   -6.5919   -3.9711 H        1 ZINC000252489163    0.0800
43     H43     0.0783   -6.6313   -2.6295 H        1 ZINC000252489163    0.1100
44     H44    -0.4146   -3.7619    0.0011 H        1 ZINC000252489163    0.1800
45     H45     0.3096   -0.1148    2.0884 H        1 ZINC000252489163    0.1300
@<TRIPOS>BOND
1     1     2     1
2     1     27    1
3     1     28    1
4     1     29    1
5     2     26    ar
6     2     3     ar
7     3     4     ar
8     3     30    1
9     4     5     1
10    4     20    ar
11    5     6     am
12    5     31    1
13    6     7     2
14    6     8     am
15    8     19    1
16    8     9     1
17    9     10    1
18    9     32    1
19    9     33    1
20    10    11    1
21    10    34    1
22    10    35    1
23    11    12    1
24    11    36    1
25    11    37    1
26    12    13    1
27    12    14    1
28    12    19    1
29    14    15    am
30    14    38    1
31    15    16    1
32    15    17    2
33    15    18    2
34    16    39    1
35    16    40    1
36    16    41    1
37    19    42    1
38    19    43    1
39    20    21    ar
40    20    44    1
41    21    22    1
42    21    26    ar
43    22    23    1
44    22    24    1
45    22    25    1
46    26    45    1
@<TRIPOS>SUBSTRUCTURE
1   ZINC000252489163 1     RESIDUE    1   A     ZIN   1
@<TRIPOS>MOLECULE
ZINC000885154703
43	45	1	0	0
SMALL
USER_CHARGES
@<TRIPOS>ATOM
1      C1     -0.0187    1.5258    0.0104 C.3      1 ZINC000885154703   -0.1500
2      C2      0.0021   -0.0041    0.0020 C.3      1 ZINC000885154703   -0.0300
3      C3      0.7074   -0.4901   -1.2379 C.2      1 ZINC000885154703    0.1700
4      N4      0.1563   -0.7422   -2.3873 N.2      1 ZINC000885154703   -0.3800
5      O5      0.9936   -1.1162   -3.1814 O.3      1 ZINC000885154703    0.0800
6      C6      2.1948   -1.1388   -2.5961 C.2      1 ZINC000885154703    0.1800
7      C7      3.4976   -1.5433   -3.2364 C.3      1 ZINC000885154703    0.0000
8      H8      4.3117   -1.4489   -2.5177 H        1 ZINC000885154703    0.1300
9      C9      3.7768   -0.6601   -4.4700 C.3      1 ZINC000885154703   -0.1200
10     C10     4.4270   -1.6273   -5.4903 C.3      1 ZINC000885154703   -0.1300
11     C11     3.6349   -2.9399   -5.2697 C.3      1 ZINC000885154703    0.1400
12     H12     2.6814   -2.9031   -5.7966 H        1 ZINC000885154703    0.1000
13     N13     4.4207   -4.0937   -5.7140 N.am     1 ZINC000885154703   -0.7100
14     C14     4.3769   -4.4825   -7.0037 C.2      1 ZINC000885154703    0.5700
15     O15     3.6854   -3.8757   -7.7984 O.2      1 ZINC000885154703   -0.5100
16     C16     5.1691   -5.6458   -7.4516 C.ar     1 ZINC000885154703   -0.1600
17     C17     4.6139   -6.9286   -7.4184 C.ar     1 ZINC000885154703    0.1500
18     F18     3.3501   -7.1087   -6.9762 F        1 ZINC000885154703   -0.1200
19     C19     5.3624   -8.0127   -7.8401 C.ar     1 ZINC000885154703   -0.1500
20     C20     6.6552   -7.8292   -8.2925 C.ar     1 ZINC000885154703   -0.0400
21     C21     7.2106   -6.5605   -8.3277 C.ar     1 ZINC000885154703   -0.1100
22     Br22    8.9808   -6.3234   -8.9490 Br       1 ZINC000885154703   -0.0300
23     C23     6.4744   -5.4692   -7.9158 C.ar     1 ZINC000885154703    0.0100
24     C24     7.0813   -4.0904   -7.9558 C.3      1 ZINC000885154703   -0.1300
25     C25     3.4078   -2.9932   -3.7437 C.3      1 ZINC000885154703   -0.1300
26     N26     2.0239   -0.7369   -1.3596 N.2      1 ZINC000885154703   -0.4800
27     H27     1.0039    1.9031    0.0027 H        1 ZINC000885154703    0.0600
28     H28    -0.5459    1.8868   -0.8726 H        1 ZINC000885154703    0.0600
29     H29    -0.5289    1.8773    0.9072 H        1 ZINC000885154703    0.0700
30     H30     0.5293   -0.3651    0.8851 H        1 ZINC000885154703    0.1000
31     H31    -1.0205   -0.3814    0.0098 H        1 ZINC000885154703    0.0900
32     H32     2.8462   -0.2552   -4.8678 H        1 ZINC000885154703    0.0800
33     H33     4.4659    0.1449   -4.2148 H        1 ZINC000885154703    0.0900
34     H34     4.2933   -1.2618   -6.5084 H        1 ZINC000885154703    0.0800
35     H35     5.4839   -1.7716   -5.2663 H        1 ZINC000885154703    0.0800
36     H36     4.9724   -4.5779   -5.0799 H        1 ZINC000885154703    0.4000
37     H37     4.9357   -9.0046   -7.8154 H        1 ZINC000885154703    0.1500
38     H38     7.2355   -8.6791   -8.6200 H        1 ZINC000885154703    0.1500
39     H39     6.8783   -3.6320   -8.9237 H        1 ZINC000885154703    0.0900
40     H40     6.6459   -3.4787   -7.1656 H        1 ZINC000885154703    0.0800
41     H41     8.1586   -4.1632   -7.8071 H        1 ZINC000885154703    0.0900
42     H42     4.1787   -3.6031   -3.2727 H        1 ZINC000885154703    0.0900
43     H43     2.4218   -3.4041   -3.5271 H        1 ZINC000885154703    0.0800
@<TRIPOS>BOND
1     1     2     1
2     1     27    1
3     1     28    1
4     1     29    1
5     2     3     1
6     2     30    1
7     2     31    1
8     3     26    1
9     3     4     2
10    4     5     1
11    5     6     1
12    6     7     1
13    6     26    2
14    7     8     1
15    7     25    1
16    7     9     1
17    9     10    1
18    9     32    1
19    9     33    1
20    10    11    1
21    10    34    1
22    10    35    1
23    11    12    1
24    11    13    1
25    11    25    1
26    13    14    am
27    13    36    1
28    14    15    2
29    14    16    1
30    16    23    ar
31    16    17    ar
32    17    18    1
33    17    19    ar
34    19    20    ar
35    19    37    1
36    20    21    ar
37    20    38    1
38    21    22    1
39    21    23    ar
40    23    24    1
41    24    39    1
42    24    40    1
43    24    41    1
44    25    42    1
45    25    43    1
@<TRIPOS>SUBSTRUCTURE
1   ZINC000885154703 1     RESIDUE    1   A     ZIN   1
@<TRIPOS>MOLECULE
ZINC001176298561
40	41	1	0	0
SMALL
USER_CHARGES
@<TRIPOS>ATOM
1      C1     -0.7267   -0.1892    2.2686 C.3      1 ZINC001176298561   -0.1700
2      C2     -0.8810   -1.2702    1.1969 C.3      1 ZINC001176298561    0.1100
3      N3     -2.2799   -1.3351    0.7668 N.am     1 ZINC001176298561   -0.6100
4      C4     -2.7421   -0.5074   -0.3501 C.3      1 ZINC001176298561    0.0900
5      C5     -2.3084   -1.1455   -1.6714 C.3      1 ZINC001176298561   -0.1800
6      C6     -3.1417   -2.1564    1.3986 C.2      1 ZINC001176298561    0.5600
7      O7     -2.7711   -2.8051    2.3574 O.2      1 ZINC001176298561   -0.5300
8      C8     -4.5382   -2.2684    0.9254 C.ar     1 ZINC001176298561   -0.0600
9      C9     -4.8146   -2.2813   -0.4425 C.ar     1 ZINC001176298561   -0.1900
10     C10    -6.1213   -2.3860   -0.8825 C.ar     1 ZINC001176298561    0.1400
11     F11    -6.3872   -2.3988   -2.2070 F        1 ZINC001176298561   -0.1300
12     C12    -7.1575   -2.4784    0.0304 C.ar     1 ZINC001176298561   -0.1800
13     C13    -6.8905   -2.4663    1.3946 C.ar     1 ZINC001176298561    0.2400
14     N14    -7.9394   -2.5602    2.3122 N.pl3    1 ZINC001176298561   -0.6700
15     C15    -9.2565   -2.3325    1.8955 C.2      1 ZINC001176298561    0.0400
16     C16   -10.2085   -3.3032    2.0487 C.2      1 ZINC001176298561   -0.0300
17     C17   -11.5210   -3.0490    1.6231 C.2      1 ZINC001176298561   -0.1300
18     Cl18  -12.7443   -4.2668    1.8082 Cl       1 ZINC001176298561   -0.0400
19     C19   -11.8338   -1.8548    1.0687 C.2      1 ZINC001176298561    0.1400
20     N20   -10.8879   -0.8885    0.9157 N.am     1 ZINC001176298561   -0.6000
21     C21    -9.6194   -1.0962    1.3174 C.2      1 ZINC001176298561    0.5100
22     O22    -8.7820   -0.2197    1.1739 O.2      1 ZINC001176298561   -0.5200
23     C23    -5.5824   -2.3673    1.8447 C.ar     1 ZINC001176298561   -0.1300
24     H24     0.3142   -0.1408    2.5886 H        1 ZINC001176298561    0.0700
25     H25    -1.0256    0.7751    1.8577 H        1 ZINC001176298561    0.0600
26     H26    -1.3586   -0.4317    3.1230 H        1 ZINC001176298561    0.0600
27     H27    -0.2491   -1.0276    0.3425 H        1 ZINC001176298561    0.0800
28     H28    -0.5820   -2.2345    1.6078 H        1 ZINC001176298561    0.0900
29     H29    -3.8292   -0.4333   -0.3220 H        1 ZINC001176298561    0.0900
30     H30    -2.3078    0.4890   -0.2680 H        1 ZINC001176298561    0.0800
31     H31    -2.4258   -2.2273   -1.6082 H        1 ZINC001176298561    0.0700
32     H32    -2.9271   -0.7595   -2.4816 H        1 ZINC001176298561    0.0700
33     H33    -1.2634   -0.9041   -1.8657 H        1 ZINC001176298561    0.0600
34     H34    -4.0082   -2.2090   -1.1572 H        1 ZINC001176298561    0.1500
35     H35    -8.1765   -2.5597   -0.3182 H        1 ZINC001176298561    0.1300
36     H36    -7.7553   -2.7831    3.2381 H        1 ZINC001176298561    0.4200
37     H37    -9.9526   -4.2542    2.4919 H        1 ZINC001176298561    0.1500
38     H38   -12.8463   -1.6665    0.7435 H        1 ZINC001176298561    0.1800
39     H39   -11.1311   -0.0388    0.5158 H        1 ZINC001176298561    0.4300
40     H40    -5.3736   -2.3578    2.9043 H        1 ZINC001176298561    0.1400
@<TRIPOS>BOND
1     1     2     1
2     1     24    1
3     1     25    1
4     1     26    1
5     2     3     1
6     2     27    1
7     2     28    1
8     3     4     1
9     3     6     am
10    4     5     1
11    4     29    1
12    4     30    1
13    5     31    1
14    5     32    1
15    5     33    1
16    6     7     2
17    6     8     1
18    8     23    ar
19    8     9     ar
20    9     10    ar
21    9     34    1
22    10    11    1
23    10    12    ar
24    12    13    ar
25    12    35    1
26    13    14    1
27    13    23    ar
28    14    15    1
29    14    36    1
30    15    21    1
31    15    16    2
32    16    17    1
33    16    37    1
34    17    18    1
35    17    19    2
36    19    20    1
37    19    38    1
38    20    21    am
39    20    39    1
40    21    22    2
41    23    40    1
@<TRIPOS>SUBSTRUCTURE
1   ZINC001176298561 1     RESIDUE    1   A     ZIN   1
@<TRIPOS>MOLECULE
ZINC000866717058
44	45	1	0	0
SMALL
USER_CHARGES
@<TRIPOS>ATOM
1      C1     -0.5002    1.4536    0.0791 C.3      1 ZINC000866717058   -0.1100
2      C2     -0.2287   -0.0280    0.0352 C.ar     1 ZINC000866717058    0.2400
3      N3     -0.3256   -0.6750   -1.1071 N.ar     1 ZINC000866717058   -0.5500
4      C4     -0.0963   -1.9765   -1.1936 C.ar     1 ZINC000866717058    0.3500
5      O5     -0.2089   -2.5961   -2.3934 O.3      1 ZINC000866717058   -0.2800
6      C6     -0.5761   -1.7844   -3.5107 C.3      1 ZINC000866717058    0.0500
7      H7     -1.1992   -0.9575   -3.1700 H        1 ZINC000866717058    0.1300
8      C8      0.6859   -1.2316   -4.1761 C.3      1 ZINC000866717058   -0.1700
9      C9     -1.3566   -2.6289   -4.5199 C.3      1 ZINC000866717058    0.4600
10     F10    -2.5105   -3.1344   -3.9115 F        1 ZINC000866717058   -0.1700
11     F11    -1.7161   -1.8343   -5.6138 F        1 ZINC000866717058   -0.1700
12     F12    -0.5569   -3.6903   -4.9573 F        1 ZINC000866717058   -0.1700
13     C13     0.2590   -2.7167   -0.0704 C.ar     1 ZINC000866717058   -0.1900
14     C14     0.3726   -2.0802    1.1487 C.ar     1 ZINC000866717058    0.0000
15     C15     0.1286   -0.7002    1.2049 C.ar     1 ZINC000866717058   -0.2300
16     C16     0.2371    0.0282    2.4842 C.2      1 ZINC000866717058    0.5800
17     O17     0.1348    1.2396    2.5046 O.2      1 ZINC000866717058   -0.5200
18     N18     0.4497   -0.6495    3.6297 N.am     1 ZINC000866717058   -0.7400
19     C19     0.5573    0.0735    4.8993 C.3      1 ZINC000866717058    0.1400
20     C20     0.7962   -0.9234    6.0351 C.3      1 ZINC000866717058   -0.5700
21     H21     1.7231   -1.4744    5.8757 H        1 ZINC000866717058    0.1500
22     C22     0.8147   -0.2007    7.4068 C.3      1 ZINC000866717058   -0.1100
23     C23     0.5653   -1.2790    8.4759 C.3      1 ZINC000866717058   -0.1200
24     C24    -0.6300   -2.1464    8.0338 C.3      1 ZINC000866717058   -0.5900
25     S25    -0.6226   -2.0715    6.2022 S.o2     1 ZINC000866717058    2.3700
26     O26    -1.8044   -1.4230    5.7527 O.2      1 ZINC000866717058   -0.9200
27     O27    -0.2694   -3.3451    5.6803 O.2      1 ZINC000866717058   -0.9300
28     H28     0.4422    1.9977    0.0163 H        1 ZINC000866717058    0.0900
29     H29    -1.1368    1.7314   -0.7609 H        1 ZINC000866717058    0.0700
30     H30    -1.0023    1.7035    1.0138 H        1 ZINC000866717058    0.1100
31     H31     0.4058   -0.6125   -5.0284 H        1 ZINC000866717058    0.0900
32     H32     1.2419   -0.6300   -3.4572 H        1 ZINC000866717058    0.0900
33     H33     1.3089   -2.0585   -4.5169 H        1 ZINC000866717058    0.0800
34     H34     0.4435   -3.7777   -0.1516 H        1 ZINC000866717058    0.1600
35     H35     0.6465   -2.6303    2.0368 H        1 ZINC000866717058    0.1500
36     H36     0.5313   -1.6159    3.6134 H        1 ZINC000866717058    0.4000
37     H37     1.3911    0.7737    4.8491 H        1 ZINC000866717058    0.1000
38     H38    -0.3665    0.6213    5.0850 H        1 ZINC000866717058    0.1000
39     H39     1.7853    0.2681    7.5687 H        1 ZINC000866717058    0.1100
40     H40     0.0260    0.5507    7.4435 H        1 ZINC000866717058    0.0900
41     H41     1.4525   -1.9036    8.5803 H        1 ZINC000866717058    0.0900
42     H42     0.3399   -0.8035    9.4304 H        1 ZINC000866717058    0.1000
43     H43    -0.4957   -3.1750    8.3686 H        1 ZINC000866717058    0.1400
44     H44    -1.5605   -1.7377    8.4278 H        1 ZINC000866717058    0.1400
@<TRIPOS>BOND
1     1     2     1
2     1     28    1
3     1     29    1
4     1     30    1
5     2     15    ar
6     2     3     ar
7     3     4     ar
8     4     5     1
9     4     13    ar
10    5     6     1
11    6     7     1
12    6     8     1
13    6     9     1
14    8     31    1
15    8     32    1
16    8     33    1
17    9     10    1
18    9     11    1
19    9     12    1
20    13    14    ar
21    13    34    1
22    14    15    ar
23    14    35    1
24    15    16    1
25    16    17    2
26    16    18    am
27    18    19    1
28    18    36    1
29    19    20    1
30    19    37    1
31    19    38    1
32    20    21    1
33    20    25    1
34    20    22    1
35    22    23    1
36    22    39    1
37    22    40    1
38    23    24    1
39    23    41    1
40    23    42    1
41    24    25    1
42    24    43    1
43    24    44    1
44    25    26    2
45    25    27    2
@<TRIPOS>SUBSTRUCTURE
1   ZINC000866717058 1     RESIDUE    1   A     ZIN   1
@<TRIPOS>MOLECULE
ZINC000129637895
48	50	1	0	0
SMALL
USER_CHARGES
@<TRIPOS>ATOM
1      C1     -0.2192    0.8238    0.4596 C.3      1 ZINC000129637895   -0.1500
2      C2     -0.0740   -0.6604    0.1176 C.3      1 ZINC000129637895   -0.0500
3      C3      0.6715   -0.8053   -1.1840 C.2      1 ZINC000129637895    0.0300
4      C4      0.0545   -0.8360   -2.3789 C.2      1 ZINC000129637895   -0.0200
5      N5     -1.3195   -0.7420   -2.5961 N.am     1 ZINC000129637895   -0.5900
6      C6     -1.8079   -0.7869   -3.8515 C.2      1 ZINC000129637895    0.5000
7      O7     -1.0513   -0.9091   -4.7932 O.2      1 ZINC000129637895   -0.4800
8      C8     -3.2788   -0.6863   -4.0840 C.2      1 ZINC000129637895    0.5200
9      O9     -4.0243   -0.4420   -3.1579 O.2      1 ZINC000129637895   -0.5100
10     N10    -3.7792   -0.8667   -5.3224 N.am     1 ZINC000129637895   -0.5800
11     C11    -2.9232   -1.3397   -6.4209 C.3      1 ZINC000129637895    0.0800
12     C12    -3.6087   -2.5343   -7.0925 C.3      1 ZINC000129637895    0.0400
13     N13    -4.9720   -2.1545   -7.4866 N.3      1 ZINC000129637895   -0.4900
14     C14    -5.5722   -3.1612   -8.2463 C.ar     1 ZINC000129637895    0.1500
15     C15    -4.8761   -4.3308   -8.5253 C.ar     1 ZINC000129637895   -0.2100
16     C16    -5.4702   -5.3266   -9.2764 C.ar     1 ZINC000129637895   -0.0500
17     C17    -6.7570   -5.1622   -9.7522 C.ar     1 ZINC000129637895   -0.2300
18     C18    -7.4573   -3.9958   -9.4766 C.ar     1 ZINC000129637895    0.1500
19     O19    -8.7230   -3.8360   -9.9450 O.3      1 ZINC000129637895   -0.3200
20     C20    -9.2704   -4.9087  -10.7141 C.3      1 ZINC000129637895    0.0300
21     C21    -6.8672   -2.9969   -8.7189 C.ar     1 ZINC000129637895   -0.1700
22     C22    -5.7918   -1.8198   -6.3146 C.3      1 ZINC000129637895    0.0400
23     C23    -5.1971   -0.6017   -5.6097 C.3      1 ZINC000129637895    0.1100
24     S24     1.2915   -1.0150   -3.6209 S.3      1 ZINC000129637895    0.2400
25     C25     2.5085   -1.0310   -2.4205 C.2      1 ZINC000129637895   -0.0300
26     N26     1.9838   -0.9072   -1.2488 N.2      1 ZINC000129637895   -0.4500
27     H27     0.7693    1.2731    0.5551 H        1 ZINC000129637895    0.0600
28     H28    -0.7720    1.3271   -0.3336 H        1 ZINC000129637895    0.0500
29     H29    -0.7585    0.9286    1.4011 H        1 ZINC000129637895    0.0700
30     H30     0.4787   -1.1637    0.9109 H        1 ZINC000129637895    0.0900
31     H31    -1.0625   -1.1097    0.0221 H        1 ZINC000129637895    0.0700
32     H32    -1.9239   -0.6444   -1.8438 H        1 ZINC000129637895    0.4300
33     H33    -2.7859   -0.5398   -7.1485 H        1 ZINC000129637895    0.0900
34     H34    -1.9557   -1.6480   -6.0246 H        1 ZINC000129637895    0.1400
35     H35    -3.0431   -2.8284   -7.9766 H        1 ZINC000129637895    0.1000
36     H36    -3.6516   -3.3694   -6.3933 H        1 ZINC000129637895    0.0500
37     H37    -3.8700   -4.4614   -8.1552 H        1 ZINC000129637895    0.1300
38     H38    -4.9277   -6.2351   -9.4923 H        1 ZINC000129637895    0.1300
39     H39    -7.2184   -5.9422  -10.3397 H        1 ZINC000129637895    0.1300
40     H40    -8.6512   -5.0771  -11.5951 H        1 ZINC000129637895    0.0600
41     H41    -9.2945   -5.8146  -10.1084 H        1 ZINC000129637895    0.0600
42     H42   -10.2832   -4.6527  -11.0253 H        1 ZINC000129637895    0.1000
43     H43    -7.4107   -2.0889   -8.5032 H        1 ZINC000129637895    0.1300
44     H44    -6.8094   -1.5958   -6.6345 H        1 ZINC000129637895    0.1000
45     H45    -5.8043   -2.6648   -5.6261 H        1 ZINC000129637895    0.0500
46     H46    -5.7333   -0.4197   -4.6783 H        1 ZINC000129637895    0.1100
47     H47    -5.2763    0.2712   -6.2576 H        1 ZINC000129637895    0.0900
48     H48     3.5664   -1.1267   -2.6157 H        1 ZINC000129637895    0.2000
@<TRIPOS>BOND
1     1     2     1
2     1     27    1
3     1     28    1
4     1     29    1
5     2     3     1
6     2     30    1
7     2     31    1
8     3     26    1
9     3     4     2
10    4     5     1
11    4     24    1
12    5     6     am
13    5     32    1
14    6     7     2
15    6     8     1
16    8     9     2
17    8     10    am
18    10    23    1
19    10    11    1
20    11    12    1
21    11    33    1
22    11    34    1
23    12    13    1
24    12    35    1
25    12    36    1
26    13    14    1
27    13    22    1
28    14    21    ar
29    14    15    ar
30    15    16    ar
31    15    37    1
32    16    17    ar
33    16    38    1
34    17    18    ar
35    17    39    1
36    18    19    1
37    18    21    ar
38    19    20    1
39    20    40    1
40    20    41    1
41    20    42    1
42    21    43    1
43    22    23    1
44    22    44    1
45    22    45    1
46    23    46    1
47    23    47    1
48    24    25    1
49    25    26    2
50    25    48    1
@<TRIPOS>SUBSTRUCTURE
1   ZINC000129637895 1     RESIDUE    1   A     ZIN   1
@<TRIPOS>MOLECULE
ZINC000058174787
47	48	1	0	0
SMALL
USER_CHARGES
@<TRIPOS>ATOM
1      C1     -0.0184    1.5028    0.0103 C.3      1 ZINC000058174787   -0.0700
2      C2      0.0021   -0.0041    0.0020 C.2      1 ZINC000058174787    0.2100
3      N3      0.0080   -0.7588   -1.0626 N.2      1 ZINC000058174787   -0.4200
4      C4      0.0275   -2.0475   -0.6911 C.2      1 ZINC000058174787   -0.5600
5      S5      0.0421   -3.4372   -1.7742 S.o2     1 ZINC000058174787    2.7400
6      O6      1.3979   -3.6402   -2.1482 O.2      1 ZINC000058174787   -0.9500
7      O7     -0.7510   -4.4389   -1.1524 O.2      1 ZINC000058174787   -0.9600
8      N8     -0.7616   -2.9930   -3.1524 N.am     1 ZINC000058174787   -1.1100
9      C9     -0.2138   -1.9418   -4.0132 C.3      1 ZINC000058174787    0.1300
10     C10    -0.9152   -1.9787   -5.3725 C.3      1 ZINC000058174787   -0.1200
11     C11    -0.3518   -0.8974   -6.2580 C.2      1 ZINC000058174787    0.4700
12     O12     0.5213   -0.1717   -5.8445 O.2      1 ZINC000058174787   -0.5000
13     O13    -0.8198   -0.7404   -7.5063 O.3      1 ZINC000058174787   -0.3300
14     C14    -0.2306    0.3213   -8.3025 C.3      1 ZINC000058174787    0.0400
15     H15     0.8042    0.4738   -7.9960 H        1 ZINC000058174787    0.1200
16     C16    -1.0206    1.6146   -8.0927 C.3      1 ZINC000058174787   -0.1700
17     C17    -0.2716   -0.0617   -9.7595 C.2      1 ZINC000058174787    0.4000
18     O18    -1.0448   -0.9146  -10.1407 O.2      1 ZINC000058174787   -0.4200
19     C19     0.6261    0.5991  -10.7192 C.ar     1 ZINC000058174787   -0.1600
20     C20     1.5234    1.5794  -10.2820 C.ar     1 ZINC000058174787   -0.0600
21     C21     2.3618    2.1940  -11.1868 C.ar     1 ZINC000058174787   -0.1200
22     C22     2.3176    1.8431  -12.5266 C.ar     1 ZINC000058174787    0.0000
23     Cl23    3.3779    2.6221  -13.6590 Cl       1 ZINC000058174787   -0.0500
24     C24     1.4314    0.8730  -12.9667 C.ar     1 ZINC000058174787   -0.1200
25     C25     0.5907    0.2462  -12.0725 C.ar     1 ZINC000058174787   -0.0400
26     C26     0.0339   -2.0930    0.6548 C.2      1 ZINC000058174787    0.0700
27     N27     0.0232   -0.7970    1.0950 N.pl3    1 ZINC000058174787   -0.4500
28     C28     0.0255   -0.3530    2.4911 C.3      1 ZINC000058174787    0.0600
29     H29     1.0042    1.8801    0.0026 H        1 ZINC000058174787    0.0900
30     H30    -0.5455    1.8639   -0.8728 H        1 ZINC000058174787    0.1000
31     H31    -0.5286    1.8543    0.9071 H        1 ZINC000058174787    0.0800
32     H32    -1.5950   -3.4289   -3.3896 H        1 ZINC000058174787    0.4200
33     H33    -0.3753   -0.9697   -3.5473 H        1 ZINC000058174787    0.0900
34     H34     0.8550   -2.1055   -4.1514 H        1 ZINC000058174787    0.0900
35     H35    -0.7538   -2.9508   -5.8384 H        1 ZINC000058174787    0.1200
36     H36    -1.9840   -1.8150   -5.2344 H        1 ZINC000058174787    0.1200
37     H37    -2.0554    1.4620   -8.3993 H        1 ZINC000058174787    0.0800
38     H38    -0.9909    1.8916   -7.0389 H        1 ZINC000058174787    0.0800
39     H39    -0.5783    2.4116   -8.6904 H        1 ZINC000058174787    0.0800
40     H40     1.5586    1.8542   -9.2382 H        1 ZINC000058174787    0.1400
41     H41     3.0548    2.9512  -10.8508 H        1 ZINC000058174787    0.1400
42     H42     1.4024    0.6045  -14.0124 H        1 ZINC000058174787    0.1400
43     H43    -0.0992   -0.5099  -12.4168 H        1 ZINC000058174787    0.1500
44     H44     0.0489   -2.9814    1.2688 H        1 ZINC000058174787    0.1900
45     H45     1.0537   -0.2331    2.8325 H        1 ZINC000058174787    0.0900
46     H46    -0.4970    0.6003    2.5700 H        1 ZINC000058174787    0.1000
47     H47    -0.4784   -1.0958    3.1094 H        1 ZINC000058174787    0.0900
@<TRIPOS>BOND
1     1     2     1
2     1     29    1
3     1     30    1
4     1     31    1
5     2     27    1
6     2     3     2
7     3     4     1
8     4     5     1
9     4     26    2
10    5     6     2
11    5     7     2
12    5     8     am
13    8     9     1
14    8     32    1
15    9     10    1
16    9     33    1
17    9     34    1
18    10    11    1
19    10    35    1
20    10    36    1
21    11    12    2
22    11    13    1
23    13    14    1
24    14    15    1
25    14    16    1
26    14    17    1
27    16    37    1
28    16    38    1
29    16    39    1
30    17    18    2
31    17    19    1
32    19    25    ar
33    19    20    ar
34    20    21    ar
35    20    40    1
36    21    22    ar
37    21    41    1
38    22    23    1
39    22    24    ar
40    24    25    ar
41    24    42    1
42    25    43    1
43    26    27    1
44    26    44    1
45    27    28    1
46    28    45    1
47    28    46    1
48    28    47    1
@<TRIPOS>SUBSTRUCTURE
1   ZINC000058174787 1     RESIDUE    1   A     ZIN   1
@<TRIPOS>MOLECULE
ZINC000929592477
53	56	1	0	0
SMALL
USER_CHARGES
@<TRIPOS>ATOM
1      O1      0.0020   -0.0040    0.0122 O.2      1 ZINC000929592477   -0.5700
2      C2     -0.0145    1.2119    0.0104 C.2      1 ZINC000929592477    0.7100
3      N3      1.1435    1.9014    0.0014 N.am     1 ZINC000929592477   -0.6800
4      C4      2.3656    1.2205    0.0919 C.ar     1 ZINC000929592477    0.1600
5      C5      3.4261    1.7871    0.7863 C.ar     1 ZINC000929592477   -0.1300
6      C6      4.6299    1.1172    0.8753 C.ar     1 ZINC000929592477   -0.0800
7      C7      4.7800   -0.1245    0.2702 C.ar     1 ZINC000929592477   -0.1000
8      S8      6.3159   -0.9804    0.3840 S.3      1 ZINC000929592477   -0.1100
9      C9      6.0022   -2.5069   -0.5444 C.3      1 ZINC000929592477   -0.0800
10     C10     5.8742   -2.2043   -2.0580 C.3      1 ZINC000929592477   -0.1200
11     C11     6.2230   -3.5655   -2.7095 C.3      1 ZINC000929592477   -0.1200
12     C12     7.3555   -4.1285   -1.8262 C.3      1 ZINC000929592477   -0.1200
13     C13     7.2151   -3.4555   -0.4495 C.3      1 ZINC000929592477   -0.1000
14     C14     3.7184   -0.6914   -0.4241 C.ar     1 ZINC000929592477   -0.1200
15     C15     2.5134   -0.0230   -0.5081 C.ar     1 ZINC000929592477   -0.1000
16     N16    -1.1907    1.8699    0.0119 N.am     1 ZINC000929592477   -0.7300
17     C17    -2.4494    1.1203    0.0157 C.3      1 ZINC000929592477    0.1500
18     H18    -2.3472    0.2006    0.5916 H        1 ZINC000929592477    0.1200
19     C19    -2.9091    0.8121   -1.4338 C.3      1 ZINC000929592477   -0.1400
20     C20    -3.6195    2.1328   -1.8222 C.3      1 ZINC000929592477    0.1100
21     N21    -4.2964    2.5740   -0.5892 N.pl3    1 ZINC000929592477   -0.6000
22     C22    -5.4009    3.3990   -0.5292 C.2      1 ZINC000929592477    0.4600
23     C23    -5.9729    3.8841   -1.6935 C.2      1 ZINC000929592477   -0.4000
24     C24    -7.0938    4.7192   -1.5887 C.2      1 ZINC000929592477    0.5300
25     O25    -7.6300    5.1691   -2.5889 O.2      1 ZINC000929592477   -0.5500
26     N26    -7.5691    5.0162   -0.3611 N.am     1 ZINC000929592477   -0.6400
27     C27    -6.9720    4.5155    0.7388 C.2      1 ZINC000929592477    0.4100
28     N28    -5.9316    3.7325    0.6578 N.2      1 ZINC000929592477   -0.5700
29     C29    -3.5994    1.9871    0.5706 C.3      1 ZINC000929592477    0.1100
30     H30     1.1313    2.8689   -0.0678 H        1 ZINC000929592477    0.4100
31     H31     3.3094    2.7523    1.2565 H        1 ZINC000929592477    0.1300
32     H32     5.4549    1.5583    1.4148 H        1 ZINC000929592477    0.1300
33     H33     5.1030   -2.9994   -0.1744 H        1 ZINC000929592477    0.1000
34     H34     4.8558   -1.9062   -2.3075 H        1 ZINC000929592477    0.0700
35     H35     6.5873   -1.4373   -2.3603 H        1 ZINC000929592477    0.0800
36     H36     5.3589   -4.2297   -2.6913 H        1 ZINC000929592477    0.0700
37     H37     6.5726   -3.4207   -3.7317 H        1 ZINC000929592477    0.0700
38     H38     7.2491   -5.2087   -1.7262 H        1 ZINC000929592477    0.0700
39     H39     8.3246   -3.8871   -2.2627 H        1 ZINC000929592477    0.0700
40     H40     8.1161   -2.8874   -0.2180 H        1 ZINC000929592477    0.0700
41     H41     7.0406   -4.2090    0.3184 H        1 ZINC000929592477    0.0800
42     H42     3.8346   -1.6566   -0.8945 H        1 ZINC000929592477    0.1300
43     H43     1.6880   -0.4637   -1.0475 H        1 ZINC000929592477    0.1400
44     H44    -1.2038    2.8398    0.0105 H        1 ZINC000929592477    0.4000
45     H45    -2.0541    0.6228   -2.0829 H        1 ZINC000929592477    0.0900
46     H46    -3.6053   -0.0263   -1.4529 H        1 ZINC000929592477    0.0900
47     H47    -2.8894    2.8766   -2.1412 H        1 ZINC000929592477    0.0700
48     H48    -4.3490    1.9531   -2.6119 H        1 ZINC000929592477    0.0800
49     H49    -5.5648    3.6253   -2.6593 H        1 ZINC000929592477    0.1500
50     H50    -8.3437    5.5929   -0.2698 H        1 ZINC000929592477    0.4200
51     H51    -7.3677    4.7655    1.7121 H        1 ZINC000929592477    0.2100
52     H52    -4.2898    1.3685    1.1439 H        1 ZINC000929592477    0.0900
53     H53    -3.1971    2.7797    1.2014 H        1 ZINC000929592477    0.0800
@<TRIPOS>BOND
1     1     2     2
2     2     3     am
3     2     16    am
4     3     4     1
5     3     30    1
6     4     15    ar
7     4     5     ar
8     5     6     ar
9     5     31    1
10    6     7     ar
11    6     32    1
12    7     8     1
13    7     14    ar
14    8     9     1
15    9     13    1
16    9     10    1
17    9     33    1
18    10    11    1
19    10    34    1
20    10    35    1
21    11    12    1
22    11    36    1
23    11    37    1
24    12    13    1
25    12    38    1
26    12    39    1
27    13    40    1
28    13    41    1
29    14    15    ar
30    14    42    1
31    15    43    1
32    16    17    1
33    16    44    1
34    17    18    1
35    17    29    1
36    17    19    1
37    19    20    1
38    19    45    1
39    19    46    1
40    20    21    1
41    20    47    1
42    20    48    1
43    21    22    1
44    21    29    1
45    22    28    1
46    22    23    2
47    23    24    1
48    23    49    1
49    24    25    2
50    24    26    am
51    26    27    1
52    26    50    1
53    27    28    2
54    27    51    1
55    29    52    1
56    29    53    1
@<TRIPOS>SUBSTRUCTURE
1   ZINC000929592477 1     RESIDUE    1   A     ZIN   1
@<TRIPOS>MOLECULE
ZINC000942890482
52	54	1	0	0
SMALL
USER_CHARGES
@<TRIPOS>ATOM
1      C1     -0.2623    1.0227    0.2063 C.3      1 ZINC000942890482   -0.1700
2      C2     -0.0002   -0.4778    0.0622 C.3      1 ZINC000942890482    0.1000
3      N3      0.7199   -0.7298   -1.1885 N.am     1 ZINC000942890482   -0.6000
4      C4      2.0619   -0.6111   -1.2291 C.2      1 ZINC000942890482    0.5700
5      O5      2.6498   -0.7190   -2.2877 O.2      1 ZINC000942890482   -0.5100
6      C6      2.8182   -0.3500    0.0126 C.ar     1 ZINC000942890482   -0.1400
7      C7      2.6663   -1.1924    1.1158 C.ar     1 ZINC000942890482   -0.0600
8      C8      3.3750   -0.9445    2.2720 C.ar     1 ZINC000942890482   -0.1600
9      C9      4.2371    0.1390    2.3407 C.ar     1 ZINC000942890482    0.1300
10     F10     4.9292    0.3776    3.4762 F        1 ZINC000942890482   -0.1300
11     C11     4.3920    0.9786    1.2479 C.ar     1 ZINC000942890482   -0.1600
12     C12     3.6921    0.7371    0.0855 C.ar     1 ZINC000942890482   -0.0100
13     C13     3.8615    1.6502   -1.1013 C.3      1 ZINC000942890482   -0.1200
14     C14    -0.0186   -1.1108   -2.3950 C.3      1 ZINC000942890482    0.1400
15     H15    -1.0877   -1.1745   -2.1923 H        1 ZINC000942890482    0.1100
16     C16     0.5176   -2.4454   -2.9770 C.3      1 ZINC000942890482   -0.1500
17     C17     0.1689   -2.3335   -4.4762 C.3      1 ZINC000942890482    0.1100
18     N18     0.0113   -0.9041   -4.7822 N.am     1 ZINC000942890482   -0.6200
19     C19    -0.3159   -0.3895   -5.9841 C.2      1 ZINC000942890482    0.5300
20     O20    -0.4193    0.8110   -6.1220 O.2      1 ZINC000942890482   -0.5400
21     C21    -0.5535   -1.3059   -7.1567 C.3      1 ZINC000942890482   -0.1300
22     C22    -0.9070   -0.4736   -8.3909 C.3      1 ZINC000942890482   -0.0700
23     C23    -1.1481   -1.4039   -9.5814 C.3      1 ZINC000942890482   -0.1600
24     C24    -2.5520   -1.4239  -10.1893 C.3      1 ZINC000942890482   -0.1800
25     C25    -1.4008   -0.7562  -10.9443 C.3      1 ZINC000942890482   -0.1800
26     C26     0.2687   -0.1263   -3.5560 C.3      1 ZINC000942890482    0.0900
27     H27     0.6872    1.5578    0.2195 H        1 ZINC000942890482    0.0600
28     H28    -0.8628    1.3691   -0.6349 H        1 ZINC000942890482    0.0600
29     H29    -0.7981    1.2102    1.1368 H        1 ZINC000942890482    0.0700
30     H30     0.6003   -0.8241    0.9033 H        1 ZINC000942890482    0.0900
31     H31    -0.9497   -1.0129    0.0489 H        1 ZINC000942890482    0.0900
32     H32     1.9947   -2.0366    1.0634 H        1 ZINC000942890482    0.1400
33     H33     3.2580   -1.5952    3.1260 H        1 ZINC000942890482    0.1400
34     H34     5.0650    1.8213    1.3067 H        1 ZINC000942890482    0.1400
35     H35     4.7184    1.3245   -1.6910 H        1 ZINC000942890482    0.0900
36     H36     2.9627    1.6164   -1.7170 H        1 ZINC000942890482    0.0700
37     H37     4.0260    2.6704   -0.7542 H        1 ZINC000942890482    0.0700
38     H38     1.5958   -2.5218   -2.8365 H        1 ZINC000942890482    0.1000
39     H39     0.0074   -3.2959   -2.5249 H        1 ZINC000942890482    0.0900
40     H40     0.9752   -2.7544   -5.0768 H        1 ZINC000942890482    0.0700
41     H41    -0.7627   -2.8612   -4.6805 H        1 ZINC000942890482    0.0700
42     H42     0.3491   -1.8840   -7.3546 H        1 ZINC000942890482    0.0900
43     H43    -1.3760   -1.9834   -6.9275 H        1 ZINC000942890482    0.0900
44     H44    -1.8096    0.1045   -8.1929 H        1 ZINC000942890482    0.0700
45     H45    -0.0845    0.2039   -8.6200 H        1 ZINC000942890482    0.0700
46     H46    -0.5930   -2.3419   -9.5650 H        1 ZINC000942890482    0.1000
47     H47    -2.9208   -2.3751  -10.5730 H        1 ZINC000942890482    0.0900
48     H48    -3.3038   -0.7742   -9.7412 H        1 ZINC000942890482    0.0900
49     H49    -1.3953    0.3327  -10.9928 H        1 ZINC000942890482    0.0900
50     H50    -1.0123   -1.2682  -11.8246 H        1 ZINC000942890482    0.0900
51     H51    -0.4022    0.7310   -3.5027 H        1 ZINC000942890482    0.0800
52     H52     1.3078    0.2016   -3.5259 H        1 ZINC000942890482    0.0900
@<TRIPOS>BOND
1     1     2     1
2     1     27    1
3     1     28    1
4     1     29    1
5     2     3     1
6     2     30    1
7     2     31    1
8     3     4     am
9     3     14    1
10    4     5     2
11    4     6     1
12    6     12    ar
13    6     7     ar
14    7     8     ar
15    7     32    1
16    8     9     ar
17    8     33    1
18    9     10    1
19    9     11    ar
20    11    12    ar
21    11    34    1
22    12    13    1
23    13    35    1
24    13    36    1
25    13    37    1
26    14    15    1
27    14    26    1
28    14    16    1
29    16    17    1
30    16    38    1
31    16    39    1
32    17    18    1
33    17    40    1
34    17    41    1
35    18    19    am
36    18    26    1
37    19    20    2
38    19    21    1
39    21    22    1
40    21    42    1
41    21    43    1
42    22    23    1
43    22    44    1
44    22    45    1
45    23    25    1
46    23    24    1
47    23    46    1
48    24    25    1
49    24    47    1
50    24    48    1
51    25    49    1
52    25    50    1
53    26    51    1
54    26    52    1
@<TRIPOS>SUBSTRUCTURE
1   ZINC000942890482 1     RESIDUE    1   A     ZIN   1
@<TRIPOS>MOLECULE
ZINC001060578637
48	49	1	0	0
SMALL
USER_CHARGES
@<TRIPOS>ATOM
1      C1      0.4307    1.1543    0.2587 C.3      1 ZINC001060578637   -0.1500
2      C2      0.1032   -0.3386    0.1906 C.3      1 ZINC001060578637   -0.1300
3      C3     -1.4145   -0.5261    0.1411 C.3      1 ZINC001060578637    0.0700
4      H4     -1.8249    0.0500   -0.6882 H        1 ZINC001060578637    0.0900
5      O5     -1.9907   -0.0723    1.3675 O.3      1 ZINC001060578637   -0.3600
6      C6     -2.7679    1.1200    1.2385 C.3      1 ZINC001060578637    0.0300
7      C7     -1.7343   -1.9857   -0.0543 C.2      1 ZINC001060578637    0.5000
8      O8     -2.3122   -2.6017    0.8160 O.2      1 ZINC001060578637   -0.5200
9      N9     -1.3780   -2.6066   -1.1963 N.am     1 ZINC001060578637   -0.7300
10     C10    -1.6888   -4.0256   -1.3863 C.3      1 ZINC001060578637    0.1600
11     C11    -1.1877   -4.4734   -2.7351 C.ar     1 ZINC001060578637   -0.1100
12     C12    -2.0077   -4.3776   -3.8438 C.ar     1 ZINC001060578637   -0.0900
13     C13    -1.5480   -4.7884   -5.0811 C.ar     1 ZINC001060578637   -0.1100
14     C14    -0.2681   -5.2945   -5.2097 C.ar     1 ZINC001060578637   -0.0900
15     C15     0.2330   -5.7428   -6.5584 C.3      1 ZINC001060578637    0.1800
16     H16    -0.3716   -5.2846   -7.3412 H        1 ZINC001060578637    0.1000
17     C17     0.1301   -7.2659   -6.6603 C.3      1 ZINC001060578637   -0.1600
18     N18     1.6310   -5.3359   -6.7200 N.am     1 ZINC001060578637   -0.7000
19     C19     2.1430   -5.1586   -7.9541 C.2      1 ZINC001060578637    0.6100
20     O20     1.4445   -5.3365   -8.9334 O.2      1 ZINC001060578637   -0.5300
21     C21     3.5501   -4.7491   -8.1167 C.2      1 ZINC001060578637    0.1200
22     N22     4.4179   -4.5281   -7.1525 N.2      1 ZINC001060578637   -0.2400
23     N23     5.5481   -4.1886   -7.6632 N.2      1 ZINC001060578637   -0.2900
24     C24     5.4621   -4.1752   -8.9710 C.2      1 ZINC001060578637    0.1900
25     N25     4.2051   -4.5318   -9.3015 N.pl3    1 ZINC001060578637   -0.5500
26     C26     0.5524   -5.3890   -4.1012 C.ar     1 ZINC001060578637   -0.1100
27     C27     0.0941   -4.9747   -2.8647 C.ar     1 ZINC001060578637   -0.0900
28     H28     1.5123    1.2892    0.2626 H        1 ZINC001060578637    0.0600
29     H29     0.0047    1.6597   -0.6080 H        1 ZINC001060578637    0.0500
30     H30     0.0085    1.5777    1.1701 H        1 ZINC001060578637    0.0600
31     H31     0.5517   -0.7685   -0.7050 H        1 ZINC001060578637    0.0800
32     H32     0.5025   -0.8389    1.0729 H        1 ZINC001060578637    0.0800
33     H33    -3.2332    1.3558    2.1956 H        1 ZINC001060578637    0.0900
34     H34    -2.1216    1.9439    0.9359 H        1 ZINC001060578637    0.0500
35     H35    -3.5416    0.9696    0.4856 H        1 ZINC001060578637    0.0400
36     H36    -0.9157   -2.1139   -1.8923 H        1 ZINC001060578637    0.4000
37     H37    -1.2038   -4.6115   -0.6056 H        1 ZINC001060578637    0.0800
38     H38    -2.7677   -4.1715   -1.3328 H        1 ZINC001060578637    0.0800
39     H39    -3.0076   -3.9821   -3.7434 H        1 ZINC001060578637    0.1300
40     H40    -2.1889   -4.7142   -5.9472 H        1 ZINC001060578637    0.1300
41     H41     0.7346   -7.7240   -5.8775 H        1 ZINC001060578637    0.0600
42     H42    -0.9101   -7.5687   -6.5401 H        1 ZINC001060578637    0.0700
43     H43     0.4925   -7.5901   -7.6358 H        1 ZINC001060578637    0.0700
44     H44     2.1882   -5.1940   -5.9388 H        1 ZINC001060578637    0.4100
45     H45     6.2563   -3.9270   -9.6595 H        1 ZINC001060578637    0.2300
46     H46     3.8372   -4.6127  -10.1953 H        1 ZINC001060578637    0.4400
47     H47     1.5525   -5.7841   -4.2018 H        1 ZINC001060578637    0.1300
48     H48     0.7351   -5.0486   -1.9986 H        1 ZINC001060578637    0.1300
@<TRIPOS>BOND
1     1     2     1
2     1     28    1
3     1     29    1
4     1     30    1
5     2     3     1
6     2     31    1
7     2     32    1
8     3     4     1
9     3     5     1
10    3     7     1
11    5     6     1
12    6     33    1
13    6     34    1
14    6     35    1
15    7     8     2
16    7     9     am
17    9     10    1
18    9     36    1
19    10    11    1
20    10    37    1
21    10    38    1
22    11    27    ar
23    11    12    ar
24    12    13    ar
25    12    39    1
26    13    14    ar
27    13    40    1
28    14    15    1
29    14    26    ar
30    15    16    1
31    15    17    1
32    15    18    1
33    17    41    1
34    17    42    1
35    17    43    1
36    18    19    am
37    18    44    1
38    19    20    2
39    19    21    1
40    21    25    1
41    21    22    2
42    22    23    1
43    23    24    2
44    24    25    1
45    24    45    1
46    25    46    1
47    26    27    ar
48    26    47    1
49    27    48    1
@<TRIPOS>SUBSTRUCTURE
1   ZINC001060578637 1     RESIDUE    1   A     ZIN   1
@<TRIPOS>MOLECULE
ZINC000409064708
47	49	1	0	0
SMALL
USER_CHARGES
@<TRIPOS>ATOM
1      C1      4.1650    3.6853   -2.5586 C.3      1 ZINC000409064708    0.0400
2      O2      3.7407    2.5096   -1.8196 O.3      1 ZINC000409064708   -0.3500
3      C3      3.5774    1.3760   -2.5195 C.2      1 ZINC000409064708    0.4600
4      O4      3.7823    1.3662   -3.7102 O.2      1 ZINC000409064708   -0.4900
5      C5      3.1385    0.1153   -1.8201 C.3      1 ZINC000409064708    0.1400
6      H6      3.8696   -0.1498   -1.0563 H        1 ZINC000409064708    0.1500
7      C7      1.7755    0.3441   -1.1640 C.3      1 ZINC000409064708   -0.1600
8      N8      3.0346   -0.9732   -2.7952 N.am     1 ZINC000409064708   -0.5600
9      C9      2.1976   -0.8697   -3.8339 C.2      1 ZINC000409064708    0.5400
10     O10     1.4685    0.0707   -4.0859 O.2      1 ZINC000409064708   -0.4200
11     S11     2.3551   -2.3645   -4.7729 S.3      1 ZINC000409064708   -0.0100
12     C12     3.5721   -3.0798   -3.6970 C.2      1 ZINC000409064708   -0.2400
13     C13     4.1816   -4.2869   -3.8117 C.2      1 ZINC000409064708    0.0900
14     C14     5.0358   -4.7842   -2.7257 C.ar     1 ZINC000409064708   -0.1400
15     C15     4.6498   -4.6079   -1.3912 C.ar     1 ZINC000409064708    0.0000
16     C16     5.4545   -5.0761   -0.3770 C.ar     1 ZINC000409064708   -0.1600
17     C17     6.6485   -5.7224   -0.6758 C.ar     1 ZINC000409064708    0.1600
18     O18     7.4382   -6.1822    0.3283 O.3      1 ZINC000409064708   -0.3000
19     C19     8.6513   -6.8369   -0.0484 C.3      1 ZINC000409064708    0.1000
20     C20     9.3908   -7.2753    1.1893 C.ar     1 ZINC000409064708   -0.0700
21     C21    10.3007   -6.4245    1.7882 C.ar     1 ZINC000409064708   -0.1000
22     C22    10.9800   -6.8254    2.9238 C.ar     1 ZINC000409064708   -0.0900
23     C23    10.7497   -8.0773    3.4614 C.ar     1 ZINC000409064708   -0.1400
24     C24     9.8379   -8.9304    2.8626 C.ar     1 ZINC000409064708    0.1000
25     F25     9.6120  -10.1547    3.3873 F        1 ZINC000409064708   -0.1400
26     C26     9.1546   -8.5259    1.7286 C.ar     1 ZINC000409064708   -0.1300
27     C27     7.0366   -5.9001   -1.9987 C.ar     1 ZINC000409064708   -0.2200
28     C28     6.2366   -5.4415   -3.0209 C.ar     1 ZINC000409064708   -0.0400
29     C29     3.7714   -2.0629   -2.6581 C.2      1 ZINC000409064708    0.5600
30     O30     4.5510   -2.2139   -1.7358 O.2      1 ZINC000409064708   -0.4600
31     H31     5.1287    3.4903   -3.0293 H        1 ZINC000409064708    0.0700
32     H32     3.4266    3.9184   -3.3257 H        1 ZINC000409064708    0.0700
33     H33     4.2585    4.5296   -1.8757 H        1 ZINC000409064708    0.1100
34     H34     1.8528    1.1539   -0.4385 H        1 ZINC000409064708    0.1000
35     H35     1.0444    0.6092   -1.9278 H        1 ZINC000409064708    0.0800
36     H36     1.4580   -0.5677   -0.6582 H        1 ZINC000409064708    0.0800
37     H37     4.0385   -4.8818   -4.7017 H        1 ZINC000409064708    0.1600
38     H38     3.7228   -4.1053   -1.1580 H        1 ZINC000409064708    0.1300
39     H39     5.1578   -4.9408    0.6525 H        1 ZINC000409064708    0.1400
40     H40     8.4189   -7.7082   -0.6606 H        1 ZINC000409064708    0.0800
41     H41     9.2741   -6.1477   -0.6187 H        1 ZINC000409064708    0.0800
42     H42    10.4816   -5.4460    1.3685 H        1 ZINC000409064708    0.1300
43     H43    11.6910   -6.1600    3.3907 H        1 ZINC000409064708    0.1400
44     H44    11.2809   -8.3906    4.3481 H        1 ZINC000409064708    0.1400
45     H45     8.4430   -9.1902    1.2609 H        1 ZINC000409064708    0.1400
46     H46     7.9653   -6.4026   -2.2251 H        1 ZINC000409064708    0.1300
47     H47     6.5390   -5.5801   -4.0484 H        1 ZINC000409064708    0.1300
@<TRIPOS>BOND
1     1     2     1
2     1     31    1
3     1     32    1
4     1     33    1
5     2     3     1
6     3     4     2
7     3     5     1
8     5     6     1
9     5     7     1
10    5     8     1
11    7     34    1
12    7     35    1
13    7     36    1
14    8     29    am
15    8     9     am
16    9     10    2
17    9     11    1
18    11    12    1
19    12    13    2
20    12    29    1
21    13    14    1
22    13    37    1
23    14    28    ar
24    14    15    ar
25    15    16    ar
26    15    38    1
27    16    17    ar
28    16    39    1
29    17    18    1
30    17    27    ar
31    18    19    1
32    19    20    1
33    19    40    1
34    19    41    1
35    20    26    ar
36    20    21    ar
37    21    22    ar
38    21    42    1
39    22    23    ar
40    22    43    1
41    23    24    ar
42    23    44    1
43    24    25    1
44    24    26    ar
45    26    45    1
46    27    28    ar
47    27    46    1
48    28    47    1
49    29    30    2
@<TRIPOS>SUBSTRUCTURE
1   ZINC000409064708 1     RESIDUE    1   A     ZIN   1
@<TRIPOS>MOLECULE
ZINC000371438955
47	49	1	0	0
SMALL
USER_CHARGES
@<TRIPOS>ATOM
1      C1      0.0062    1.8268   -0.0206 C.3      1 ZINC000371438955   -0.6800
2      S2      0.0218    0.0129   -0.0196 S.o2     1 ZINC000371438955    2.6000
3      O3      0.8629   -0.4779    1.0153 O.2      1 ZINC000371438955   -0.9500
4      O4     -1.2922   -0.4972   -0.1996 O.2      1 ZINC000371438955   -0.9500
5      N5      0.8129   -0.3943   -1.4163 N.am     1 ZINC000371438955   -0.9900
6      C6      0.0515   -0.5690   -2.6197 C.3      1 ZINC000371438955    0.1300
7      C7     -0.4502   -2.0223   -2.6567 C.3      1 ZINC000371438955   -0.1700
8      C8      0.6065   -2.9556   -3.0777 C.3      1 ZINC000371438955    0.1400
9      N9      1.7684   -2.8655   -2.1620 N.am     1 ZINC000371438955   -0.6200
10     C10     1.9611   -3.8135   -1.2235 C.2      1 ZINC000371438955    0.7100
11     O11     1.1354   -4.6924   -1.0687 O.2      1 ZINC000371438955   -0.5800
12     N12     3.0691   -3.7871   -0.4566 N.am     1 ZINC000371438955   -0.7400
13     C13     3.3375   -4.8807    0.4806 C.3      1 ZINC000371438955    0.2000
14     H14     2.3884   -5.2358    0.8821 H        1 ZINC000371438955    0.1100
15     C15     4.1793   -4.3443    1.6253 C.3      1 ZINC000371438955   -0.1300
16     C16     4.4306   -5.4752    2.6326 C.3      1 ZINC000371438955   -0.1100
17     S17     5.6200   -6.6197    1.8752 S.3      1 ZINC000371438955   -0.1000
18     C18     4.9704   -6.8302    0.2481 C.ar     1 ZINC000371438955   -0.1100
19     C19     5.4831   -7.8747   -0.5265 C.ar     1 ZINC000371438955    0.1100
20     F20     6.4354   -8.6839   -0.0132 F        1 ZINC000371438955   -0.1300
21     C21     5.0250   -8.0869   -1.8102 C.ar     1 ZINC000371438955   -0.1300
22     C22     4.0519   -7.2538   -2.3323 C.ar     1 ZINC000371438955   -0.1000
23     C23     3.5431   -6.2255   -1.5695 C.ar     1 ZINC000371438955   -0.1000
24     C24     3.9930   -6.0042   -0.2674 C.ar     1 ZINC000371438955   -0.0800
25     C25     2.6894   -1.7692   -2.2741 C.3      1 ZINC000371438955    0.1000
26     C26     2.2917   -0.5612   -1.3842 C.3      1 ZINC000371438955    0.0900
27     H27     1.0306    2.1990   -0.0314 H        1 ZINC000371438955    0.1300
28     H28    -0.5199    2.1852   -0.9054 H        1 ZINC000371438955    0.1300
29     H29    -0.5016    2.1863    0.8744 H        1 ZINC000371438955    0.1300
30     H30    -0.7978    0.1143   -2.6209 H        1 ZINC000371438955    0.0800
31     H31     0.6828   -0.3748   -3.4867 H        1 ZINC000371438955    0.0800
32     H32    -0.7969   -2.3037   -1.6624 H        1 ZINC000371438955    0.0800
33     H33    -1.2844   -2.0922   -3.3549 H        1 ZINC000371438955    0.0900
34     H34     0.2153   -3.9729   -3.0651 H        1 ZINC000371438955    0.0900
35     H35     0.9250   -2.7070   -4.0901 H        1 ZINC000371438955    0.0700
36     H36     3.6888   -3.0441   -0.5252 H        1 ZINC000371438955    0.4000
37     H37     5.1318   -3.9816    1.2389 H        1 ZINC000371438955    0.0900
38     H38     3.6491   -3.5288    2.1171 H        1 ZINC000371438955    0.1000
39     H39     4.8450   -5.0659    3.5539 H        1 ZINC000371438955    0.1200
40     H40     3.4973   -5.9971    2.8446 H        1 ZINC000371438955    0.1000
41     H41     5.4232   -8.8969   -2.4031 H        1 ZINC000371438955    0.1400
42     H42     3.6912   -7.4093   -3.3383 H        1 ZINC000371438955    0.1300
43     H43     2.7849   -5.5795   -1.9869 H        1 ZINC000371438955    0.1400
44     H44     3.6821   -2.1113   -1.9815 H        1 ZINC000371438955    0.0800
45     H45     2.7233   -1.4420   -3.3132 H        1 ZINC000371438955    0.0900
46     H46     2.7734    0.3414   -1.7602 H        1 ZINC000371438955    0.0800
47     H47     2.6122   -0.7442   -0.3586 H        1 ZINC000371438955    0.1000
@<TRIPOS>BOND
1     1     2     1
2     1     27    1
3     1     28    1
4     1     29    1
5     2     3     2
6     2     4     2
7     2     5     am
8     5     26    1
9     5     6     1
10    6     7     1
11    6     30    1
12    6     31    1
13    7     8     1
14    7     32    1
15    7     33    1
16    8     9     1
17    8     34    1
18    8     35    1
19    9     10    am
20    9     25    1
21    10    11    2
22    10    12    am
23    12    13    1
24    12    36    1
25    13    14    1
26    13    24    1
27    13    15    1
28    15    16    1
29    15    37    1
30    15    38    1
31    16    17    1
32    16    39    1
33    16    40    1
34    17    18    1
35    18    24    ar
36    18    19    ar
37    19    20    1
38    19    21    ar
39    21    22    ar
40    21    41    1
41    22    23    ar
42    22    42    1
43    23    24    ar
44    23    43    1
45    25    26    1
46    25    44    1
47    25    45    1
48    26    46    1
49    26    47    1
@<TRIPOS>SUBSTRUCTURE
1   ZINC000371438955 1     RESIDUE    1   A     ZIN   1
@<TRIPOS>MOLECULE
ZINC000573150059
43	44	1	0	0
SMALL
USER_CHARGES
@<TRIPOS>ATOM
1      C1      3.2593    0.9032   -4.1819 C.3      1 ZINC000573150059    0.0300
2      O2      2.1210    0.0599   -4.3691 O.3      1 ZINC000573150059   -0.3600
3      C3      1.6400   -0.5429   -3.1661 C.3      1 ZINC000573150059    0.0700
4      H4      2.4709   -0.6905   -2.4763 H        1 ZINC000573150059    0.0900
5      C5      0.5966    0.3705   -2.5197 C.3      1 ZINC000573150059   -0.1700
6      C6      1.0117   -1.8744   -3.4878 C.2      1 ZINC000573150059    0.5100
7      O7      0.9790   -2.2683   -4.6345 O.2      1 ZINC000573150059   -0.4900
8      N8      0.4861   -2.6274   -2.5014 N.am     1 ZINC000573150059   -0.6700
9      C9     -0.1828   -3.8170   -2.8101 C.ar     1 ZINC000573150059    0.1900
10     C10    -1.2853   -4.2091   -2.0614 C.ar     1 ZINC000573150059   -0.2000
11     C11    -1.9466   -5.3837   -2.3654 C.ar     1 ZINC000573150059   -0.0500
12     C12    -1.5145   -6.1715   -3.4145 C.ar     1 ZINC000573150059   -0.2200
13     C13    -0.4124   -5.7847   -4.1678 C.ar     1 ZINC000573150059    0.2400
14     N14     0.0238   -6.5815   -5.2287 N.pl3    1 ZINC000573150059   -0.7300
15     C15    -0.6804   -7.8258   -5.5481 C.3      1 ZINC000573150059    0.2000
16     H16    -1.0378   -8.2875   -4.6277 H        1 ZINC000573150059    0.1000
17     C17    -1.8700   -7.5189   -6.4601 C.3      1 ZINC000573150059   -0.1700
18     C18     0.2610   -8.7696   -6.2510 C.ar     1 ZINC000573150059    0.1400
19     C19     0.0284  -10.1308   -6.1984 C.ar     1 ZINC000573150059   -0.1600
20     C20     0.9000  -10.9910   -6.8487 C.ar     1 ZINC000573150059   -0.0400
21     C21     1.9783  -10.4467   -7.5307 C.ar     1 ZINC000573150059   -0.1500
22     Br22    3.2021  -11.5671   -8.4379 Br       1 ZINC000573150059   -0.0300
23     C23     2.1465   -9.0738   -7.5391 C.ar     1 ZINC000573150059    0.1400
24     N24     1.2940   -8.2864   -6.9133 N.ar     1 ZINC000573150059   -0.4700
25     C25     0.2509   -4.6033   -3.8679 C.ar     1 ZINC000573150059   -0.1900
26     H26     3.0038    1.7116   -3.4968 H        1 ZINC000573150059    0.0500
27     H27     4.0795    0.3190   -3.7646 H        1 ZINC000573150059    0.0400
28     H28     3.5629    1.3222   -5.1412 H        1 ZINC000573150059    0.0900
29     H29    -0.2343    0.5181   -3.2096 H        1 ZINC000573150059    0.0700
30     H30     0.2297   -0.0893   -1.6021 H        1 ZINC000573150059    0.0700
31     H31     1.0510    1.3335   -2.2870 H        1 ZINC000573150059    0.0700
32     H32     0.5716   -2.3448   -1.5774 H        1 ZINC000573150059    0.4100
33     H33    -1.6257   -3.5953   -1.2405 H        1 ZINC000573150059    0.1200
34     H34    -2.8031   -5.6865   -1.7813 H        1 ZINC000573150059    0.1300
35     H35    -2.0333   -7.0891   -3.6494 H        1 ZINC000573150059    0.1200
36     H36     0.7931   -6.3110   -5.7541 H        1 ZINC000573150059    0.4100
37     H37    -1.5126   -7.0572   -7.3805 H        1 ZINC000573150059    0.0600
38     H38    -2.3939   -8.4447   -6.6977 H        1 ZINC000573150059    0.0700
39     H39    -2.5509   -6.8362   -5.9517 H        1 ZINC000573150059    0.0700
40     H40    -0.8215  -10.5197   -5.6574 H        1 ZINC000573150059    0.1500
41     H41     0.7433  -12.0593   -6.8244 H        1 ZINC000573150059    0.1500
42     H42     2.9835   -8.6417   -8.0674 H        1 ZINC000573150059    0.1700
43     H43     1.1073   -4.3002   -4.4519 H        1 ZINC000573150059    0.1400
@<TRIPOS>BOND
1     1     2     1
2     1     26    1
3     1     27    1
4     1     28    1
5     2     3     1
6     3     4     1
7     3     5     1
8     3     6     1
9     5     29    1
10    5     30    1
11    5     31    1
12    6     7     2
13    6     8     am
14    8     9     1
15    8     32    1
16    9     25    ar
17    9     10    ar
18    10    11    ar
19    10    33    1
20    11    12    ar
21    11    34    1
22    12    13    ar
23    12    35    1
24    13    14    1
25    13    25    ar
26    14    15    1
27    14    36    1
28    15    16    1
29    15    17    1
30    15    18    1
31    17    37    1
32    17    38    1
33    17    39    1
34    18    24    ar
35    18    19    ar
36    19    20    ar
37    19    40    1
38    20    21    ar
39    20    41    1
40    21    22    1
41    21    23    ar
42    23    24    ar
43    23    42    1
44    25    43    1
@<TRIPOS>SUBSTRUCTURE
1   ZINC000573150059 1     RESIDUE    1   A     ZIN   1
@<TRIPOS>MOLECULE
ZINC000766421809
45	47	1	0	0
SMALL
USER_CHARGES
@<TRIPOS>ATOM
1      C1     -0.0184    1.5028    0.0103 C.3      1 ZINC000766421809   -0.0700
2      C2      0.0021   -0.0041    0.0020 C.2      1 ZINC000766421809    0.0700
3      N3      0.0081   -0.7654   -1.0620 N.2      1 ZINC000766421809   -0.2900
4      N4      0.0285   -2.1021   -0.6436 N.pl3    1 ZINC000766421809   -0.3700
5      C5      0.0411   -3.2784   -1.5168 C.3      1 ZINC000766421809    0.1000
6      C6      0.0344   -2.1150    0.7058 C.2      1 ZINC000766421809    0.0700
7      C7      0.0552   -3.3404    1.5826 C.3      1 ZINC000766421809    0.1400
8      O8      0.0556   -2.9375    2.9775 O.3      1 ZINC000766421809   -0.3400
9      C9      0.0731   -3.9174    3.8948 C.2      1 ZINC000766421809    0.4700
10     O10     0.0876   -5.0734    3.5437 O.2      1 ZINC000766421809   -0.5000
11     C11     0.0747   -3.5755    5.3625 C.3      1 ZINC000766421809   -0.1100
12     C12     0.0961   -4.8646    6.1864 C.3      1 ZINC000766421809   -0.0200
13     C13     0.0977   -4.5228    7.6541 C.2      1 ZINC000766421809    0.1900
14     N14    -0.9550   -4.3661    8.4174 N.2      1 ZINC000766421809   -0.4700
15     C15    -0.4724   -4.0704    9.6456 C.2      1 ZINC000766421809    0.2200
16     C16    -1.2731   -3.8027   10.8658 C.ar     1 ZINC000766421809   -0.0300
17     C17    -2.6647   -3.8494   10.8124 C.ar     1 ZINC000766421809   -0.0500
18     C18    -3.4055   -3.6003   11.9495 C.ar     1 ZINC000766421809   -0.1500
19     C19    -2.7675   -3.3036   13.1430 C.ar     1 ZINC000766421809    0.1200
20     F20    -3.4966   -3.0599   14.2540 F        1 ZINC000766421809   -0.1300
21     C21    -1.3837   -3.2566   13.2006 C.ar     1 ZINC000766421809   -0.1200
22     C22    -0.6953   -2.9343   14.5019 C.3      1 ZINC000766421809   -0.1200
23     C23    -0.6353   -3.5095   12.0698 C.ar     1 ZINC000766421809   -0.0600
24     N24     0.8324   -4.0651    9.5565 N.2      1 ZINC000766421809   -0.3700
25     O25     1.1738   -4.3283    8.4228 O.3      1 ZINC000766421809    0.0900
26     C26     0.0240   -0.8302    1.1305 C.2      1 ZINC000766421809   -0.2400
27     H27     1.0042    1.8801    0.0026 H        1 ZINC000766421809    0.0800
28     H28    -0.5455    1.8639   -0.8728 H        1 ZINC000766421809    0.0700
29     H29    -0.5286    1.8543    0.9071 H        1 ZINC000766421809    0.0800
30     H30     1.0717   -3.5556   -1.7381 H        1 ZINC000766421809    0.0800
31     H31    -0.4588   -4.1078   -1.0163 H        1 ZINC000766421809    0.0900
32     H32    -0.4804   -3.0471   -2.4456 H        1 ZINC000766421809    0.0900
33     H33    -0.8273   -3.9472    1.3799 H        1 ZINC000766421809    0.0900
34     H34     0.9524   -3.9225    1.3722 H        1 ZINC000766421809    0.0900
35     H35     0.9575   -2.9804    5.5961 H        1 ZINC000766421809    0.1200
36     H36    -0.8223   -3.0051    5.6037 H        1 ZINC000766421809    0.1200
37     H37    -0.7867   -5.4597    5.9529 H        1 ZINC000766421809    0.1200
38     H38     0.9930   -5.4351    5.9452 H        1 ZINC000766421809    0.1200
39     H39    -3.1628   -4.0800    9.8822 H        1 ZINC000766421809    0.1500
40     H40    -4.4841   -3.6363   11.9090 H        1 ZINC000766421809    0.1500
41     H41    -0.5051   -3.8567   15.0505 H        1 ZINC000766421809    0.0800
42     H42     0.2500   -2.4313   14.2981 H        1 ZINC000766421809    0.0800
43     H43    -1.3329   -2.2817   15.0983 H        1 ZINC000766421809    0.0700
44     H44     0.4431   -3.4726   12.1156 H        1 ZINC000766421809    0.1400
45     H45     0.0259   -0.5010    2.1591 H        1 ZINC000766421809    0.1500
@<TRIPOS>BOND
1     1     2     1
2     1     27    1
3     1     28    1
4     1     29    1
5     2     26    1
6     2     3     2
7     3     4     1
8     4     5     1
9     4     6     1
10    5     30    1
11    5     31    1
12    5     32    1
13    6     7     1
14    6     26    2
15    7     8     1
16    7     33    1
17    7     34    1
18    8     9     1
19    9     10    2
20    9     11    1
21    11    12    1
22    11    35    1
23    11    36    1
24    12    13    1
25    12    37    1
26    12    38    1
27    13    25    1
28    13    14    2
29    14    15    1
30    15    16    1
31    15    24    2
32    16    23    ar
33    16    17    ar
34    17    18    ar
35    17    39    1
36    18    19    ar
37    18    40    1
38    19    20    1
39    19    21    ar
40    21    22    1
41    21    23    ar
42    22    41    1
43    22    42    1
44    22    43    1
45    23    44    1
46    24    25    1
47    26    45    1
@<TRIPOS>SUBSTRUCTURE
1   ZINC000766421809 1     RESIDUE    1   A     ZIN   1
@<TRIPOS>MOLECULE
ZINC000506388363
48	51	1	0	0
SMALL
USER_CHARGES
@<TRIPOS>ATOM
1      O1     -0.7293    0.5588    1.7169 O.2      1 ZINC000506388363   -0.5300
2      C2     -0.6986    1.7256    1.3775 C.2      1 ZINC000506388363    0.5600
3      C3      0.5500    2.5044    1.5204 C.ar     1 ZINC000506388363   -0.1200
4      C4      0.4955    3.8717    1.7947 C.ar     1 ZINC000506388363   -0.0900
5      C5      1.6641    4.5933    1.9275 C.ar     1 ZINC000506388363   -0.1100
6      C6      2.8884    3.9648    1.7888 C.ar     1 ZINC000506388363   -0.0900
7      C7      2.9502    2.6084    1.5165 C.ar     1 ZINC000506388363   -0.0400
8      Cl8     4.4916    1.8285    1.3447 Cl       1 ZINC000506388363   -0.0600
9      C9      1.7882    1.8741    1.3871 C.ar     1 ZINC000506388363   -0.0600
10     N10    -1.8012    2.3078    0.8658 N.am     1 ZINC000506388363   -0.6100
11     C11    -1.7529    3.6774    0.3318 C.3      1 ZINC000506388363    0.1000
12     C12    -2.3635    3.6737   -1.0737 C.3      1 ZINC000506388363    0.0400
13     N13    -3.7038    3.0747   -1.0202 N.3      1 ZINC000506388363   -0.5300
14     C14    -4.3916    3.2075   -2.3114 C.3      1 ZINC000506388363    0.1200
15     C15    -5.8366    2.8096   -2.1540 C.2      1 ZINC000506388363   -0.2100
16     C16    -6.3896    1.6450   -2.5575 C.2      1 ZINC000506388363    0.0600
17     N17    -7.7009    1.6729   -2.2366 N.pl3    1 ZINC000506388363   -0.4700
18     N18    -7.9712    2.8973   -1.6123 N.2      1 ZINC000506388363   -0.2700
19     C19    -6.8495    3.5835   -1.5546 C.2      1 ZINC000506388363    0.1300
20     C20    -6.6835    4.9377   -0.9709 C.ar     1 ZINC000506388363   -0.0700
21     C21    -6.0219    5.9339   -1.6893 C.ar     1 ZINC000506388363    0.1500
22     F22    -5.5306    5.6686   -2.9195 F        1 ZINC000506388363   -0.1200
23     C23    -5.8706    7.1935   -1.1396 C.ar     1 ZINC000506388363   -0.1600
24     C24    -6.3733    7.4669    0.1193 C.ar     1 ZINC000506388363   -0.0500
25     C25    -7.0301    6.4838    0.8367 C.ar     1 ZINC000506388363   -0.1600
26     C26    -7.1933    5.2217    0.2962 C.ar     1 ZINC000506388363    0.1600
27     F27    -7.8351    4.2623    0.9982 F        1 ZINC000506388363   -0.1200
28     C28    -3.6428    1.6689   -0.5983 C.3      1 ZINC000506388363    0.0400
29     C29    -3.0831    1.5882    0.8210 C.3      1 ZINC000506388363    0.1200
30     H30    -0.4597    4.3641    1.9026 H        1 ZINC000506388363    0.1400
31     H31     1.6226    5.6514    2.1398 H        1 ZINC000506388363    0.1400
32     H32     3.8000    4.5345    1.8929 H        1 ZINC000506388363    0.1400
33     H33     1.8371    0.8163    1.1751 H        1 ZINC000506388363    0.1400
34     H34    -2.3255    4.3427    0.9780 H        1 ZINC000506388363    0.0800
35     H35    -0.7175    4.0140    0.2803 H        1 ZINC000506388363    0.1000
36     H36    -2.4370    4.6973   -1.4410 H        1 ZINC000506388363    0.0900
37     H37    -1.7312    3.0909   -1.7434 H        1 ZINC000506388363    0.0400
38     H38    -4.3344    4.2423   -2.6488 H        1 ZINC000506388363    0.1000
39     H39    -3.9141    2.5589   -3.0458 H        1 ZINC000506388363    0.0400
40     H40    -5.8736    0.8343   -3.0504 H        1 ZINC000506388363    0.1800
41     H41    -8.3442    0.9676   -2.4089 H        1 ZINC000506388363    0.4400
42     H42    -5.3583    7.9656   -1.6946 H        1 ZINC000506388363    0.1500
43     H43    -6.2522    8.4523    0.5443 H        1 ZINC000506388363    0.1500
44     H44    -7.4201    6.7036    1.8195 H        1 ZINC000506388363    0.1500
45     H45    -4.6440    1.2386   -0.6210 H        1 ZINC000506388363    0.0900
46     H46    -2.9926    1.1141   -1.2747 H        1 ZINC000506388363    0.0400
47     H47    -2.9288    0.5446    1.0950 H        1 ZINC000506388363    0.1000
48     H48    -3.7816    2.0530    1.5170 H        1 ZINC000506388363    0.0800
@<TRIPOS>BOND
1     1     2     2
2     2     3     1
3     2     10    am
4     3     9     ar
5     3     4     ar
6     4     5     ar
7     4     30    1
8     5     6     ar
9     5     31    1
10    6     7     ar
11    6     32    1
12    7     8     1
13    7     9     ar
14    9     33    1
15    10    29    1
16    10    11    1
17    11    12    1
18    11    34    1
19    11    35    1
20    12    13    1
21    12    36    1
22    12    37    1
23    13    14    1
24    13    28    1
25    14    15    1
26    14    38    1
27    14    39    1
28    15    19    1
29    15    16    2
30    16    17    1
31    16    40    1
32    17    18    1
33    17    41    1
34    18    19    2
35    19    20    1
36    20    26    ar
37    20    21    ar
38    21    22    1
39    21    23    ar
40    23    24    ar
41    23    42    1
42    24    25    ar
43    24    43    1
44    25    26    ar
45    25    44    1
46    26    27    1
47    28    29    1
48    28    45    1
49    28    46    1
50    29    47    1
51    29    48    1
@<TRIPOS>SUBSTRUCTURE
1   ZINC000506388363 1     RESIDUE    1   A     ZIN   1
@<TRIPOS>MOLECULE
ZINC001291841503
55	58	1	0	0
SMALL
USER_CHARGES
@<TRIPOS>ATOM
1      C1      0.1530    0.0257   -4.1618 C.3      1 ZINC001291841503   -0.1500
2      C2      0.4884   -1.4353   -3.8549 C.3      1 ZINC001291841503   -0.1100
3      C3      1.9697   -1.6895   -4.1410 C.3      1 ZINC001291841503    0.0500
4      H4      2.1971   -1.3975   -5.1663 H        1 ZINC001291841503    0.0900
5      C5      2.8114   -0.8788   -3.1895 C.2      1 ZINC001291841503    0.2000
6      N6      2.8074   -0.9652   -1.8894 N.2      1 ZINC001291841503   -0.2700
7      N7      3.6460   -0.1292   -1.3896 N.2      1 ZINC001291841503   -0.3100
8      C8      4.2349    0.5408   -2.3519 C.2      1 ZINC001291841503    0.3600
9      N9      5.1971    1.5266   -2.2001 N.3      1 ZINC001291841503   -0.4500
10     C10     4.6263    2.8598   -2.4340 C.3      1 ZINC001291841503    0.0200
11     C11     5.8264    1.4484   -0.8751 C.3      1 ZINC001291841503    0.0700
12     H12     5.0838    1.5722   -0.0869 H        1 ZINC001291841503    0.0800
13     C13     6.5938    0.1088   -0.7059 C.3      1 ZINC001291841503   -0.1400
14     C14     7.6872    0.5226    0.3110 C.3      1 ZINC001291841503    0.0500
15     O15     8.0420    1.8679   -0.0463 O.3      1 ZINC001291841503   -0.3800
16     C16     6.9522    2.4960   -0.7388 C.3      1 ZINC001291841503    0.0600
17     N17     3.7252    0.0795   -3.5306 N.pl3    1 ZINC001291841503   -0.4700
18     C18     4.0769    0.5253   -4.8811 C.3      1 ZINC001291841503    0.1900
19     C19     5.3098   -0.2058   -5.3464 C.2      1 ZINC001291841503   -0.2700
20     C20     5.3325   -1.3641   -6.0126 C.2      1 ZINC001291841503    0.0800
21     N21     6.5402   -1.8011   -6.3079 N.2      1 ZINC001291841503   -0.4800
22     C22     7.5374   -1.0759   -5.9279 C.2      1 ZINC001291841503    0.0500
23     C23     8.9872   -1.4073   -6.1714 C.3      1 ZINC001291841503   -0.0800
24     S24     6.9757    0.3192   -5.1147 S.3      1 ZINC001291841503    0.1800
25     C25     2.2728   -3.1541   -3.9569 C.ar     1 ZINC001291841503   -0.0900
26     C26     2.0565   -3.7560   -2.7314 C.ar     1 ZINC001291841503   -0.0900
27     C27     2.3345   -5.0995   -2.5625 C.ar     1 ZINC001291841503   -0.1200
28     C28     2.8283   -5.8413   -3.6192 C.ar     1 ZINC001291841503   -0.1200
29     C29     3.0438   -5.2397   -4.8450 C.ar     1 ZINC001291841503   -0.1200
30     C30     2.7617   -3.8971   -5.0151 C.ar     1 ZINC001291841503   -0.1100
31     H31     0.7613    0.6775   -3.5347 H        1 ZINC001291841503    0.0500
32     H32     0.3613    0.2335   -5.2113 H        1 ZINC001291841503    0.0500
33     H33    -0.9023    0.2068   -3.9580 H        1 ZINC001291841503    0.0600
34     H34     0.2802   -1.6431   -2.8054 H        1 ZINC001291841503    0.0800
35     H35    -0.1199   -2.0871   -4.4820 H        1 ZINC001291841503    0.0800
36     H36     3.8885    3.0797   -1.6622 H        1 ZINC001291841503    0.0500
37     H37     5.4202    3.6059   -2.4007 H        1 ZINC001291841503    0.0900
38     H38     4.1465    2.8832   -3.4124 H        1 ZINC001291841503    0.0700
39     H39     5.9467   -0.6654   -0.2937 H        1 ZINC001291841503    0.0900
40     H40     7.0359   -0.2125   -1.6490 H        1 ZINC001291841503    0.0800
41     H41     7.2906    0.4928    1.3259 H        1 ZINC001291841503    0.0700
42     H42     8.5534   -0.1332    0.2231 H        1 ZINC001291841503    0.0900
43     H43     7.2781    2.8155   -1.7287 H        1 ZINC001291841503    0.0800
44     H44     6.5984    3.3555   -0.1694 H        1 ZINC001291841503    0.0700
45     H45     3.2510    0.3136   -5.5602 H        1 ZINC001291841503    0.1100
46     H46     4.2727    1.5975   -4.8703 H        1 ZINC001291841503    0.1100
47     H47     4.4347   -1.8982   -6.2866 H        1 ZINC001291841503    0.1700
48     H48     9.3040   -0.9759   -7.1210 H        1 ZINC001291841503    0.0900
49     H49     9.5944   -0.9961   -5.3650 H        1 ZINC001291841503    0.0800
50     H50     9.1120   -2.4897   -6.2045 H        1 ZINC001291841503    0.0900
51     H51     1.6706   -3.1764   -1.9058 H        1 ZINC001291841503    0.1300
52     H52     2.1661   -5.5695   -1.6048 H        1 ZINC001291841503    0.1200
53     H53     3.0462   -6.8908   -3.4871 H        1 ZINC001291841503    0.1200
54     H54     3.4299   -5.8192   -5.6705 H        1 ZINC001291841503    0.1200
55     H55     2.9300   -3.4271   -5.9728 H        1 ZINC001291841503    0.1200
@<TRIPOS>BOND
1     1     2     1
2     1     31    1
3     1     32    1
4     1     33    1
5     2     3     1
6     2     34    1
7     2     35    1
8     3     4     1
9     3     5     1
10    3     25    1
11    5     17    1
12    5     6     2
13    6     7     1
14    7     8     2
15    8     9     1
16    8     17    1
17    9     10    1
18    9     11    1
19    10    36    1
20    10    37    1
21    10    38    1
22    11    12    1
23    11    16    1
24    11    13    1
25    13    14    1
26    13    39    1
27    13    40    1
28    14    15    1
29    14    41    1
30    14    42    1
31    15    16    1
32    16    43    1
33    16    44    1
34    17    18    1
35    18    19    1
36    18    45    1
37    18    46    1
38    19    24    1
39    19    20    2
40    20    21    1
41    20    47    1
42    21    22    2
43    22    23    1
44    22    24    1
45    23    48    1
46    23    49    1
47    23    50    1
48    25    30    ar
49    25    26    ar
50    26    27    ar
51    26    51    1
52    27    28    ar
53    27    52    1
54    28    29    ar
55    28    53    1
56    29    30    ar
57    29    54    1
58    30    55    1
@<TRIPOS>SUBSTRUCTURE
1   ZINC001291841503 1     RESIDUE    1   A     ZIN   1
@<TRIPOS>MOLECULE
ZINC000912668252
52	54	1	0	0
SMALL
USER_CHARGES
@<TRIPOS>ATOM
1      C1     -2.9172   -2.7234   -0.9771 C.3      1 ZINC000912668252   -0.1700
2      C2     -2.2842   -1.3520   -0.7335 C.3      1 ZINC000912668252    0.1100
3      N3     -1.2691   -1.4624    0.3170 N.am     1 ZINC000912668252   -0.6100
4      C4      0.0992   -1.8583   -0.0252 C.3      1 ZINC000912668252    0.1000
5      C5      0.8586   -0.6479   -0.5723 C.3      1 ZINC000912668252   -0.1800
6      C6     -1.5941   -1.1997    1.5984 C.2      1 ZINC000912668252    0.5600
7      O7     -2.7413   -0.9234    1.8900 O.2      1 ZINC000912668252   -0.5300
8      C8     -0.5551   -1.2475    2.6493 C.ar     1 ZINC000912668252   -0.1100
9      C9      0.6762   -0.6225    2.4456 C.ar     1 ZINC000912668252   -0.1100
10     C10     1.6442   -0.6682    3.4284 C.ar     1 ZINC000912668252   -0.1000
11     C11     1.3991   -1.3315    4.6160 C.ar     1 ZINC000912668252   -0.1200
12     C12     0.1762   -1.9570    4.8285 C.ar     1 ZINC000912668252    0.1400
13     N13    -0.0671   -2.6270    6.0330 N.am     1 ZINC000912668252   -0.6700
14     C14    -0.8595   -3.7171    6.0496 C.2      1 ZINC000912668252    0.5200
15     O15    -1.2941   -4.1668    5.0104 O.2      1 ZINC000912668252   -0.4900
16     C16    -1.2055   -4.3772    7.3594 C.3      1 ZINC000912668252    0.0500
17     O17    -2.0645   -5.5216    7.1126 O.3      1 ZINC000912668252   -0.3300
18     C18    -2.4679   -6.2275    8.1883 C.2      1 ZINC000912668252    0.5400
19     O19    -2.1112   -5.8953    9.3021 O.2      1 ZINC000912668252   -0.4800
20     C20    -3.3384   -7.3979    8.0145 C.2      1 ZINC000912668252    0.0400
21     C21    -3.8140   -8.1825    9.0178 C.2      1 ZINC000912668252   -0.0900
22     C22    -4.6102   -9.1958    8.4323 C.ar     1 ZINC000912668252   -0.1000
23     C23    -5.3417  -10.2685    8.9588 C.ar     1 ZINC000912668252   -0.0900
24     C24    -6.0288  -11.0993    8.1192 C.ar     1 ZINC000912668252    0.0700
25     F25    -6.7335  -12.1331    8.6290 F        1 ZINC000912668252   -0.1400
26     C26    -6.0092  -10.8895    6.7444 C.ar     1 ZINC000912668252   -0.1100
27     C27    -5.2968   -9.8420    6.2046 C.ar     1 ZINC000912668252   -0.1000
28     C28    -4.5891   -8.9824    7.0399 C.ar     1 ZINC000912668252    0.1100
29     N29    -3.8094   -7.8736    6.8057 N.pl3    1 ZINC000912668252   -0.5600
30     C30    -0.8043   -1.9124    3.8500 C.ar     1 ZINC000912668252   -0.0700
31     H31    -3.6725   -2.6413   -1.7588 H        1 ZINC000912668252    0.0700
32     H32    -2.1470   -3.4289   -1.2888 H        1 ZINC000912668252    0.0600
33     H33    -3.3832   -3.0771   -0.0574 H        1 ZINC000912668252    0.0600
34     H34    -1.8182   -0.9984   -1.6533 H        1 ZINC000912668252    0.0800
35     H35    -3.0544   -0.6465   -0.4219 H        1 ZINC000912668252    0.0900
36     H36     0.6034   -2.2309    0.8664 H        1 ZINC000912668252    0.0900
37     H37     0.0721   -2.6425   -0.7818 H        1 ZINC000912668252    0.0800
38     H38     0.6134   -0.5109   -1.6255 H        1 ZINC000912668252    0.0600
39     H39     0.5726    0.2433   -0.0137 H        1 ZINC000912668252    0.0700
40     H40     1.9308   -0.8139   -0.4675 H        1 ZINC000912668252    0.0700
41     H41     0.8716   -0.1035    1.5189 H        1 ZINC000912668252    0.1400
42     H42     2.5964   -0.1844    3.2688 H        1 ZINC000912668252    0.1400
43     H43     2.1605   -1.3642    5.3812 H        1 ZINC000912668252    0.1300
44     H44     0.3346   -2.3068    6.8558 H        1 ZINC000912668252    0.4200
45     H45    -0.2913   -4.7086    7.8519 H        1 ZINC000912668252    0.1100
46     H46    -1.7251   -3.6642    7.9995 H        1 ZINC000912668252    0.1100
47     H47    -3.6188   -8.0557   10.0724 H        1 ZINC000912668252    0.1700
48     H48    -5.3622  -10.4385   10.0251 H        1 ZINC000912668252    0.1400
49     H49    -6.5576  -11.5547    6.0940 H        1 ZINC000912668252    0.1400
50     H50    -5.2871   -9.6877    5.1358 H        1 ZINC000912668252    0.1400
51     H51    -3.6200   -7.4899    5.9352 H        1 ZINC000912668252    0.4300
52     H52    -1.7552   -2.3978    4.0133 H        1 ZINC000912668252    0.1400
@<TRIPOS>BOND
1     1     2     1
2     1     31    1
3     1     32    1
4     1     33    1
5     2     3     1
6     2     34    1
7     2     35    1
8     3     4     1
9     3     6     am
10    4     5     1
11    4     36    1
12    4     37    1
13    5     38    1
14    5     39    1
15    5     40    1
16    6     7     2
17    6     8     1
18    8     30    ar
19    8     9     ar
20    9     10    ar
21    9     41    1
22    10    11    ar
23    10    42    1
24    11    12    ar
25    11    43    1
26    12    13    1
27    12    30    ar
28    13    14    am
29    13    44    1
30    14    15    2
31    14    16    1
32    16    17    1
33    16    45    1
34    16    46    1
35    17    18    1
36    18    19    2
37    18    20    1
38    20    29    1
39    20    21    2
40    21    22    1
41    21    47    1
42    22    28    ar
43    22    23    ar
44    23    24    ar
45    23    48    1
46    24    25    1
47    24    26    ar
48    26    27    ar
49    26    49    1
50    27    28    ar
51    27    50    1
52    28    29    1
53    29    51    1
54    30    52    1
@<TRIPOS>SUBSTRUCTURE
1   ZINC000912668252 1     RESIDUE    1   A     ZIN   1
@<TRIPOS>MOLECULE
ZINC000027473870
58	60	1	0	0
SMALL
USER_CHARGES
@<TRIPOS>ATOM
1      C1      3.2932   -0.2032    3.0445 C.3      1 ZINC000027473870   -0.1400
2      C2      2.4206    1.0197    2.7548 C.3      1 ZINC000027473870   -0.0800
3      C3      1.1071    0.5718    2.1674 C.2      1 ZINC000027473870    0.1700
4      C4     -0.0374    0.2540    2.8714 C.2      1 ZINC000027473870   -0.2900
5      C5     -0.2022    0.2898    4.3358 C.2      1 ZINC000027473870    0.6000
6      O6      0.7277    0.6247    5.0443 O.2      1 ZINC000027473870   -0.5400
7      N7     -1.3834   -0.0486    4.8896 N.am     1 ZINC000027473870   -0.7200
8      C8     -1.5471   -0.0130    6.3450 C.3      1 ZINC000027473870    0.1600
9      C9     -2.9495   -0.4327    6.7031 C.ar     1 ZINC000027473870   -0.0900
10     C10    -3.9511    0.5176    6.7929 C.ar     1 ZINC000027473870   -0.1100
11     C11    -5.2369    0.1402    7.1207 C.ar     1 ZINC000027473870   -0.1100
12     C12    -5.5263   -1.2038    7.3617 C.ar     1 ZINC000027473870   -0.1200
13     C13    -6.9022   -1.6156    7.7131 C.2      1 ZINC000027473870    0.5600
14     O14    -7.3562   -2.6545    7.2750 O.2      1 ZINC000027473870   -0.5300
15     N15    -7.6529   -0.8390    8.5192 N.am     1 ZINC000027473870   -0.6100
16     C16    -9.0400   -1.2101    8.8096 C.3      1 ZINC000027473870    0.1100
17     C17    -9.0802   -2.0986   10.0545 C.3      1 ZINC000027473870   -0.1700
18     C18    -7.0817    0.3763    9.1050 C.3      1 ZINC000027473870    0.0900
19     C19    -7.5846    1.5988    8.3346 C.3      1 ZINC000027473870   -0.1800
20     C20    -4.5114   -2.1575    7.2690 C.ar     1 ZINC000027473870   -0.0700
21     C21    -3.2309   -1.7673    6.9352 C.ar     1 ZINC000027473870   -0.1000
22     C22    -1.0215   -0.1117    1.9253 C.2      1 ZINC000027473870    0.0900
23     N23    -0.4940   -0.0167    0.7356 N.2      1 ZINC000027473870   -0.2800
24     N24     0.8317    0.4136    0.8602 N.pl3    1 ZINC000027473870   -0.3100
25     C25     1.7250    0.6333   -0.1980 C.ar     1 ZINC000027473870    0.1300
26     C26     2.5330    1.7623   -0.2024 C.ar     1 ZINC000027473870   -0.0900
27     C27     3.4126    1.9768   -1.2453 C.ar     1 ZINC000027473870   -0.1300
28     C28     3.4889    1.0666   -2.2862 C.ar     1 ZINC000027473870    0.1100
29     F29     4.3502    1.2778   -3.3054 F        1 ZINC000027473870   -0.1300
30     C30     2.6836   -0.0602   -2.2835 C.ar     1 ZINC000027473870   -0.1400
31     C31     1.8066   -0.2807   -1.2398 C.ar     1 ZINC000027473870   -0.0700
32     H32     4.2750    0.1238    3.3867 H        1 ZINC000027473870    0.0700
33     H33     2.8226   -0.8104    3.8177 H        1 ZINC000027473870    0.0700
34     H34     3.4036   -0.7943    2.1353 H        1 ZINC000027473870    0.0500
35     H35     2.2376    1.5633    3.6817 H        1 ZINC000027473870    0.1200
36     H36     2.9321    1.6714    2.0464 H        1 ZINC000027473870    0.0800
37     H37    -2.1252   -0.3158    4.3245 H        1 ZINC000027473870    0.4000
38     H38    -0.8343   -0.6955    6.8076 H        1 ZINC000027473870    0.0800
39     H39    -1.3675    0.9996    6.7061 H        1 ZINC000027473870    0.0800
40     H40    -3.7258    1.5572    6.6062 H        1 ZINC000027473870    0.1300
41     H41    -6.0177    0.8830    7.1912 H        1 ZINC000027473870    0.1500
42     H42    -9.6276   -0.3093    8.9870 H        1 ZINC000027473870    0.0800
43     H43    -9.4558   -1.7539    7.9614 H        1 ZINC000027473870    0.0800
44     H44   -10.1123   -2.3747   10.2706 H        1 ZINC000027473870    0.0700
45     H45    -8.4927   -2.9994    9.8771 H        1 ZINC000027473870    0.0600
46     H46    -8.6644   -1.5547   10.9027 H        1 ZINC000027473870    0.0600
47     H47    -7.3860    0.4542   10.1487 H        1 ZINC000027473870    0.0800
48     H48    -5.9942    0.3317    9.0459 H        1 ZINC000027473870    0.0900
49     H49    -6.9761    2.4658    8.5916 H        1 ZINC000027473870    0.0700
50     H50    -7.5122    1.4086    7.2638 H        1 ZINC000027473870    0.0700
51     H51    -8.6240    1.7930    8.5996 H        1 ZINC000027473870    0.0600
52     H52    -4.7288   -3.1990    7.4547 H        1 ZINC000027473870    0.1300
53     H53    -2.4447   -2.5042    6.8628 H        1 ZINC000027473870    0.1300
54     H54    -2.0332   -0.4170    2.1481 H        1 ZINC000027473870    0.1900
55     H55     2.4736    2.4726    0.6090 H        1 ZINC000027473870    0.1500
56     H56     4.0411    2.8551   -1.2492 H        1 ZINC000027473870    0.1500
57     H57     2.7443   -0.7687   -3.0964 H        1 ZINC000027473870    0.1500
58     H58     1.1791   -1.1597   -1.2379 H        1 ZINC000027473870    0.1400
@<TRIPOS>BOND
1     1     2     1
2     1     32    1
3     1     33    1
4     1     34    1
5     2     3     1
6     2     35    1
7     2     36    1
8     3     24    1
9     3     4     2
10    4     5     1
11    4     22    1
12    5     6     2
13    5     7     am
14    7     8     1
15    7     37    1
16    8     9     1
17    8     38    1
18    8     39    1
19    9     21    ar
20    9     10    ar
21    10    11    ar
22    10    40    1
23    11    12    ar
24    11    41    1
25    12    13    1
26    12    20    ar
27    13    14    2
28    13    15    am
29    15    16    1
30    15    18    1
31    16    17    1
32    16    42    1
33    16    43    1
34    17    44    1
35    17    45    1
36    17    46    1
37    18    19    1
38    18    47    1
39    18    48    1
40    19    49    1
41    19    50    1
42    19    51    1
43    20    21    ar
44    20    52    1
45    21    53    1
46    22    23    2
47    22    54    1
48    23    24    1
49    24    25    1
50    25    31    ar
51    25    26    ar
52    26    27    ar
53    26    55    1
54    27    28    ar
55    27    56    1
56    28    29    1
57    28    30    ar
58    30    31    ar
59    30    57    1
60    31    58    1
@<TRIPOS>SUBSTRUCTURE
1   ZINC000027473870 1     RESIDUE    1   A     ZIN   1
@<TRIPOS>MOLECULE
ZINC000991934963
57	61	1	0	0
SMALL
USER_CHARGES
@<TRIPOS>ATOM
1      C1     -0.0173    1.4248    0.0099 C.3      1 ZINC000991934963    0.0400
2      O2      0.0021   -0.0041    0.0020 O.3      1 ZINC000991934963   -0.2900
3      C3      0.6238   -0.6164    1.0381 C.ar     1 ZINC000991934963    0.5000
4      N4      1.1678    0.1219    1.9917 N.ar     1 ZINC000991934963   -0.5700
5      C5      1.7826   -0.4437    3.0177 C.ar     1 ZINC000991934963    0.1900
6      C6      1.8521   -1.8260    3.0852 C.ar     1 ZINC000991934963   -0.2700
7      C7      1.2713   -2.5683    2.0688 C.ar     1 ZINC000991934963    0.2200
8      C8      1.3218   -4.0741    2.0993 C.3      1 ZINC000991934963    0.1000
9      N9      0.0876   -4.5933    2.7037 N.3      1 ZINC000991934963   -0.4900
10     C10    -0.1669   -3.9568    4.0348 C.3      1 ZINC000991934963    0.0400
11     C11    -0.3851   -5.1227    5.0496 C.3      1 ZINC000991934963   -0.1400
12     C12    -0.8357   -6.2475    4.1199 C.3      1 ZINC000991934963    0.1700
13     N13    -2.2309   -6.0973    3.6991 N.am     1 ZINC000991934963   -0.7000
14     C14    -3.2162   -6.1004    4.6187 C.2      1 ZINC000991934963    0.5200
15     O15    -2.9478   -6.2275    5.7946 O.2      1 ZINC000991934963   -0.5300
16     C16    -4.6514   -5.9460    4.1858 C.3      1 ZINC000991934963   -0.1100
17     C17    -5.5617   -5.9829    5.4150 C.3      1 ZINC000991934963   -0.1300
18     H18    -5.1176   -5.6151    6.3401 H        1 ZINC000991934963    0.1200
19     C19    -6.5595   -7.1379    5.5208 C.3      1 ZINC000991934963   -0.1700
20     C20    -7.0541   -5.7260    5.1969 C.3      1 ZINC000991934963   -0.1200
21     H21    -7.3876   -5.5310    4.1777 H        1 ZINC000991934963    0.1000
22     C22    -7.8097   -4.9731    6.2939 C.3      1 ZINC000991934963   -0.1200
23     C23    -8.3038   -3.5618    5.9702 C.3      1 ZINC000991934963   -0.1800
24     C24    -9.3020   -4.7165    6.0751 C.3      1 ZINC000991934963   -0.1800
25     C25    -0.4701   -7.6910    4.4485 C.3      1 ZINC000991934963   -0.1200
26     C26    -0.3420   -8.3351    3.0329 C.3      1 ZINC000991934963   -0.1200
27     C27     0.0103   -7.1668    2.0628 C.3      1 ZINC000991934963   -0.1000
28     C28     0.1931   -5.9894    2.9596 C.3      1 ZINC000991934963    0.0500
29     H29     1.1606   -6.1271    3.4425 H        1 ZINC000991934963    0.0400
30     N30     0.6675   -1.9385    1.0745 N.ar     1 ZINC000991934963   -0.5000
31     H31     1.0053    1.8021    0.0021 H        1 ZINC000991934963    0.0600
32     H32    -0.5445    1.7859   -0.8732 H        1 ZINC000991934963    0.1100
33     H33    -0.5275    1.7763    0.9067 H        1 ZINC000991934963    0.0600
34     H34     2.2251    0.1644    3.7929 H        1 ZINC000991934963    0.1700
35     H35     2.3481   -2.3142    3.9111 H        1 ZINC000991934963    0.1500
36     H36     1.4166   -4.4552    1.0824 H        1 ZINC000991934963    0.1000
37     H37     2.1792   -4.3971    2.6897 H        1 ZINC000991934963    0.0600
38     H38     0.6934   -3.3577    4.3332 H        1 ZINC000991934963    0.0600
39     H39    -1.0589   -3.3321    3.9859 H        1 ZINC000991934963    0.0800
40     H40     0.5453   -5.3813    5.5551 H        1 ZINC000991934963    0.0800
41     H41    -1.1644   -4.8742    5.7701 H        1 ZINC000991934963    0.0900
42     H42    -2.4456   -5.9957    2.7586 H        1 ZINC000991934963    0.4000
43     H43    -4.7750   -4.9934    3.6707 H        1 ZINC000991934963    0.1000
44     H44    -4.9174   -6.7605    3.5122 H        1 ZINC000991934963    0.0900
45     H45    -6.5674   -7.8715    4.7147 H        1 ZINC000991934963    0.0900
46     H46    -6.7721   -7.5298    6.5155 H        1 ZINC000991934963    0.1000
47     H47    -7.4767   -5.1688    7.3132 H        1 ZINC000991934963    0.1000
48     H48    -8.2959   -2.8285    6.7767 H        1 ZINC000991934963    0.0900
49     H49    -8.0906   -3.1696    4.9758 H        1 ZINC000991934963    0.0900
50     H50    -9.7456   -5.0840    5.1498 H        1 ZINC000991934963    0.0900
51     H51    -9.9509   -4.7429    6.9506 H        1 ZINC000991934963    0.0900
52     H52     0.4787   -7.7383    4.9829 H        1 ZINC000991934963    0.0800
53     H53    -1.2633   -8.1707    5.0220 H        1 ZINC000991934963    0.0800
54     H54     0.4542   -9.0795    3.0293 H        1 ZINC000991934963    0.0700
55     H55    -1.2871   -8.7934    2.7416 H        1 ZINC000991934963    0.0700
56     H56     0.9330   -7.3831    1.5244 H        1 ZINC000991934963    0.0700
57     H57    -0.8078   -6.9910    1.3644 H        1 ZINC000991934963    0.0700
@<TRIPOS>BOND
1     1     2     1
2     1     31    1
3     1     32    1
4     1     33    1
5     2     3     1
6     3     30    ar
7     3     4     ar
8     4     5     ar
9     5     6     ar
10    5     34    1
11    6     7     ar
12    6     35    1
13    7     8     1
14    7     30    ar
15    8     9     1
16    8     36    1
17    8     37    1
18    9     28    1
19    9     10    1
20    10    11    1
21    10    38    1
22    10    39    1
23    11    12    1
24    11    40    1
25    11    41    1
26    12    28    1
27    12    13    1
28    12    25    1
29    13    14    am
30    13    42    1
31    14    15    2
32    14    16    1
33    16    17    1
34    16    43    1
35    16    44    1
36    17    18    1
37    17    20    1
38    17    19    1
39    19    20    1
40    19    45    1
41    19    46    1
42    20    21    1
43    20    22    1
44    22    24    1
45    22    23    1
46    22    47    1
47    23    24    1
48    23    48    1
49    23    49    1
50    24    50    1
51    24    51    1
52    25    26    1
53    25    52    1
54    25    53    1
55    26    27    1
56    26    54    1
57    26    55    1
58    27    28    1
59    27    56    1
60    27    57    1
61    28    29    1
@<TRIPOS>SUBSTRUCTURE
1   ZINC000991934963 1     RESIDUE    1   A     ZIN   1
@<TRIPOS>MOLECULE
ZINC000225856071
56	58	1	0	0
SMALL
USER_CHARGES
@<TRIPOS>ATOM
1      C1     -0.2368    0.4360   -1.2396 C.3      1 ZINC000225856071    0.0200
2      O2     -0.5866    0.8342    0.0874 O.3      1 ZINC000225856071   -0.3100
3      C3      0.0437    0.1971    1.1091 C.ar     1 ZINC000225856071    0.1900
4      C4      0.9836   -0.7867    0.8398 C.ar     1 ZINC000225856071   -0.2300
5      C5      1.6234   -1.4326    1.8803 C.ar     1 ZINC000225856071    0.0700
6      C6      2.6447   -2.5016    1.5884 C.3      1 ZINC000225856071   -0.1800
7      C7      1.3278   -1.0987    3.1888 C.ar     1 ZINC000225856071   -0.7100
8      S8      2.1458   -1.9238    4.5134 S.o2     1 ZINC000225856071    2.7000
9      O9      1.6725   -1.3254    5.7122 O.2      1 ZINC000225856071   -0.9600
10     O10     2.0407   -3.3153    4.2452 O.2      1 ZINC000225856071   -0.9500
11     N11     3.7549   -1.5472    4.4063 N.am     1 ZINC000225856071   -1.1100
12     C12     4.1990   -0.1660    4.6098 C.3      1 ZINC000225856071    0.2400
13     H13     3.4607    0.3687    5.2074 H        1 ZINC000225856071    0.1100
14     C14     4.3522    0.5144    3.2740 C.ar     1 ZINC000225856071   -0.1000
15     C15     5.0521   -0.1082    2.2574 C.ar     1 ZINC000225856071   -0.1000
16     C16     5.1926    0.5159    1.0320 C.ar     1 ZINC000225856071   -0.1200
17     C17     4.6328    1.7625    0.8230 C.ar     1 ZINC000225856071   -0.1100
18     C18     3.9321    2.3847    1.8393 C.ar     1 ZINC000225856071   -0.1100
19     C19     3.7879    1.7587    3.0633 C.ar     1 ZINC000225856071   -0.1000
20     C20     5.5234   -0.1650    5.3289 C.ar     1 ZINC000225856071   -0.0900
21     C21     6.3627   -1.2589    5.2328 C.ar     1 ZINC000225856071   -0.1000
22     C22     7.5778   -1.2579    5.8925 C.ar     1 ZINC000225856071   -0.1200
23     C23     7.9532   -0.1630    6.6477 C.ar     1 ZINC000225856071   -0.0800
24     C24     9.2774   -0.1622    7.3672 C.3      1 ZINC000225856071   -0.1200
25     C25     7.1142    0.9318    6.7428 C.ar     1 ZINC000225856071   -0.1200
26     C26     5.9013    0.9324    6.0802 C.ar     1 ZINC000225856071   -0.0600
27     C27     4.9867    2.1257    6.1837 C.3      1 ZINC000225856071   -0.1300
28     C28     0.3914   -0.1179    3.4599 C.ar     1 ZINC000225856071    0.0200
29     C29    -0.2478    0.5338    2.4232 C.ar     1 ZINC000225856071   -0.1400
30     C30    -1.2678    1.6029    2.7194 C.3      1 ZINC000225856071   -0.1100
31     H31    -0.4604   -0.6226   -1.3722 H        1 ZINC000225856071    0.0600
32     H32    -0.8110    1.0213   -1.9579 H        1 ZINC000225856071    0.1000
33     H33     0.8278    0.6055   -1.4011 H        1 ZINC000225856071    0.0600
34     H34     1.2150   -1.0479   -0.1823 H        1 ZINC000225856071    0.1400
35     H35     3.6333   -2.0487    1.5129 H        1 ZINC000225856071    0.0900
36     H36     2.6421   -3.2361    2.3937 H        1 ZINC000225856071    0.1000
37     H37     2.3975   -2.9932    0.6475 H        1 ZINC000225856071    0.0800
38     H38     4.4033   -2.2410    4.2089 H        1 ZINC000225856071    0.4200
39     H39     5.4894   -1.0821    2.4207 H        1 ZINC000225856071    0.1200
40     H40     5.7401    0.0298    0.2380 H        1 ZINC000225856071    0.1200
41     H41     4.7432    2.2504   -0.1341 H        1 ZINC000225856071    0.1200
42     H42     3.4951    3.3587    1.6761 H        1 ZINC000225856071    0.1200
43     H43     3.2405    2.2448    3.8573 H        1 ZINC000225856071    0.1200
44     H44     6.0693   -2.1145    4.6426 H        1 ZINC000225856071    0.1200
45     H45     8.2333   -2.1130    5.8179 H        1 ZINC000225856071    0.1200
46     H46    10.0451    0.2539    6.7148 H        1 ZINC000225856071    0.0700
47     H47     9.2001    0.4440    8.2698 H        1 ZINC000225856071    0.0700
48     H48     9.5447   -1.1838    7.6373 H        1 ZINC000225856071    0.0700
49     H49     7.4078    1.7875    7.3326 H        1 ZINC000225856071    0.1200
50     H50     5.2167    2.8302    5.3844 H        1 ZINC000225856071    0.0800
51     H51     3.9509    1.7986    6.0929 H        1 ZINC000225856071    0.0700
52     H52     5.1310    2.6114    7.1488 H        1 ZINC000225856071    0.0700
53     H53     0.1624    0.1415    4.4830 H        1 ZINC000225856071    0.1500
54     H54    -0.7716    2.5716    2.7801 H        1 ZINC000225856071    0.0700
55     H55    -2.0122    1.6253    1.9235 H        1 ZINC000225856071    0.0700
56     H56    -1.7572    1.3852    3.6687 H        1 ZINC000225856071    0.0700
@<TRIPOS>BOND
1     1     2     1
2     1     31    1
3     1     32    1
4     1     33    1
5     2     3     1
6     3     29    ar
7     3     4     ar
8     4     5     ar
9     4     34    1
10    5     6     1
11    5     7     ar
12    6     35    1
13    6     36    1
14    6     37    1
15    7     8     1
16    7     28    ar
17    8     9     2
18    8     10    2
19    8     11    am
20    11    12    1
21    11    38    1
22    12    13    1
23    12    14    1
24    12    20    1
25    14    19    ar
26    14    15    ar
27    15    16    ar
28    15    39    1
29    16    17    ar
30    16    40    1
31    17    18    ar
32    17    41    1
33    18    19    ar
34    18    42    1
35    19    43    1
36    20    26    ar
37    20    21    ar
38    21    22    ar
39    21    44    1
40    22    23    ar
41    22    45    1
42    23    24    1
43    23    25    ar
44    24    46    1
45    24    47    1
46    24    48    1
47    25    26    ar
48    25    49    1
49    26    27    1
50    27    50    1
51    27    51    1
52    27    52    1
53    28    29    ar
54    28    53    1
55    29    30    1
56    30    54    1
57    30    55    1
58    30    56    1
@<TRIPOS>SUBSTRUCTURE
1   ZINC000225856071 1     RESIDUE    1   A     ZIN   1
@<TRIPOS>MOLECULE
ZINC001310073555
59	59	1	0	0
SMALL
USER_CHARGES
@<TRIPOS>ATOM
1      C1     -0.0377    1.4928   -0.0093 C.3      1 ZINC001310073555   -0.1600
2      C2     -0.0201   -0.0371   -0.0081 C.3      1 ZINC001310073555   -0.1100
3      C3     -1.4565   -0.5636    0.0132 C.3      1 ZINC001310073555   -0.0600
4      C4     -1.4389   -2.0935    0.0144 C.3      1 ZINC001310073555   -0.1100
5      C5     -2.8753   -2.6200    0.0357 C.3      1 ZINC001310073555   -0.1600
6      C6     -2.1654   -0.0607    1.2723 C.3      1 ZINC001310073555    0.1600
7      N7     -1.4520   -0.5399    2.4587 N.am     1 ZINC001310073555   -0.7400
8      C8     -1.8985   -0.2184    3.6891 C.2      1 ZINC001310073555    0.7100
9      O9     -2.8934    0.4694    3.8144 O.2      1 ZINC001310073555   -0.5700
10     N10    -1.2422   -0.6593    4.7806 N.am     1 ZINC001310073555   -0.6700
11     C11    -1.6510   -0.2484    6.0591 C.ar     1 ZINC001310073555    0.1000
12     C12    -2.9959   -0.0408    6.3241 C.ar     1 ZINC001310073555   -0.0400
13     C13    -3.3986    0.3639    7.5830 C.ar     1 ZINC001310073555   -0.2200
14     C14    -2.4591    0.5626    8.5835 C.ar     1 ZINC001310073555    0.1500
15     O15    -2.8584    0.9606    9.8208 O.3      1 ZINC001310073555   -0.3200
16     C16    -4.2602    1.1548   10.0189 C.3      1 ZINC001310073555    0.0300
17     C17    -1.1124    0.3552    8.3233 C.ar     1 ZINC001310073555   -0.2300
18     C18    -0.7064   -0.0544    7.0644 C.ar     1 ZINC001310073555    0.1400
19     O19     0.6133   -0.2582    6.8073 O.3      1 ZINC001310073555   -0.3100
20     C20     1.5264   -0.0308    7.8827 C.3      1 ZINC001310073555    0.0300
21     C21    -2.1903   -0.0707   -1.2073 C.2      1 ZINC001310073555    0.4800
22     O22    -3.1789    0.6128   -1.0828 O.2      1 ZINC001310073555   -0.5000
23     O23    -1.7457   -0.3908   -2.4327 O.3      1 ZINC001310073555   -0.3400
24     C24    -2.5022    0.1188   -3.5624 C.3      1 ZINC001310073555    0.1200
25     C25    -2.5181    1.6480   -3.5174 C.3      1 ZINC001310073555   -0.1800
26     C26    -1.8487   -0.3464   -4.8653 C.3      1 ZINC001310073555   -0.1400
27     C27    -3.9369   -0.4084   -3.4949 C.3      1 ZINC001310073555   -0.1800
28     H28     0.9857    1.8679   -0.0245 H        1 ZINC001310073555    0.0600
29     H29    -0.5684    1.8494   -0.8921 H        1 ZINC001310073555    0.0500
30     H30    -0.5427    1.8511    0.8877 H        1 ZINC001310073555    0.0600
31     H31     0.4850   -0.3954   -0.9051 H        1 ZINC001310073555    0.0800
32     H32     0.5107   -0.3936    0.8747 H        1 ZINC001310073555    0.0800
33     H33    -0.9338   -2.4518   -0.8826 H        1 ZINC001310073555    0.0800
34     H34    -0.9081   -2.4500    0.8972 H        1 ZINC001310073555    0.0800
35     H35    -3.3803   -2.2617    0.9327 H        1 ZINC001310073555    0.0600
36     H36    -3.4061   -2.2635   -0.8471 H        1 ZINC001310073555    0.0500
37     H37    -2.8628   -3.7099    0.0366 H        1 ZINC001310073555    0.0600
38     H38    -2.1779    1.0292    1.2714 H        1 ZINC001310073555    0.0800
39     H39    -3.1887   -0.4358    1.2874 H        1 ZINC001310073555    0.0800
40     H40    -0.6584   -1.0886    2.3588 H        1 ZINC001310073555    0.4000
41     H41    -0.4873   -1.2605    4.6828 H        1 ZINC001310073555    0.4100
42     H42    -3.7293   -0.1949    5.5464 H        1 ZINC001310073555    0.1500
43     H43    -4.4466    0.5259    7.7877 H        1 ZINC001310073555    0.1300
44     H44    -4.6211    1.9220    9.3338 H        1 ZINC001310073555    0.0600
45     H45    -4.7871    0.2200    9.8277 H        1 ZINC001310073555    0.0600
46     H46    -4.4416    1.4706   11.0462 H        1 ZINC001310073555    0.1000
47     H47    -0.3814    0.5102    9.1030 H        1 ZINC001310073555    0.1400
48     H48     2.5432   -0.2291    7.5441 H        1 ZINC001310073555    0.1000
49     H49     1.4488    1.0053    8.2123 H        1 ZINC001310073555    0.0600
50     H50     1.2836   -0.6950    8.7122 H        1 ZINC001310073555    0.0600
51     H51    -1.4960    2.0236   -3.5655 H        1 ZINC001310073555    0.0600
52     H52    -3.0860    2.0306   -4.3655 H        1 ZINC001310073555    0.0700
53     H53    -2.9837    1.9794   -2.5892 H        1 ZINC001310073555    0.0800
54     H54    -1.8374   -1.4358   -4.8973 H        1 ZINC001310073555    0.0700
55     H55    -2.4166    0.0362   -5.7134 H        1 ZINC001310073555    0.0800
56     H56    -0.8266    0.0292   -4.9134 H        1 ZINC001310073555    0.0700
57     H57    -4.4025   -0.0770   -2.5667 H        1 ZINC001310073555    0.0800
58     H58    -4.5048   -0.0259   -4.3430 H        1 ZINC001310073555    0.0700
59     H59    -3.9256   -1.4979   -3.5270 H        1 ZINC001310073555    0.0600
@<TRIPOS>BOND
1     1     2     1
2     1     28    1
3     1     29    1
4     1     30    1
5     2     3     1
6     2     31    1
7     2     32    1
8     3     4     1
9     3     6     1
10    3     21    1
11    4     5     1
12    4     33    1
13    4     34    1
14    5     35    1
15    5     36    1
16    5     37    1
17    6     7     1
18    6     38    1
19    6     39    1
20    7     8     am
21    7     40    1
22    8     9     2
23    8     10    am
24    10    11    1
25    10    41    1
26    11    18    ar
27    11    12    ar
28    12    13    ar
29    12    42    1
30    13    14    ar
31    13    43    1
32    14    15    1
33    14    17    ar
34    15    16    1
35    16    44    1
36    16    45    1
37    16    46    1
38    17    18    ar
39    17    47    1
40    18    19    1
41    19    20    1
42    20    48    1
43    20    49    1
44    20    50    1
45    21    22    2
46    21    23    1
47    23    24    1
48    24    25    1
49    24    26    1
50    24    27    1
51    25    51    1
52    25    52    1
53    25    53    1
54    26    54    1
55    26    55    1
56    26    56    1
57    27    57    1
58    27    58    1
59    27    59    1
@<TRIPOS>SUBSTRUCTURE
1   ZINC001310073555 1     RESIDUE    1   A     ZIN   1
@<TRIPOS>MOLECULE
ZINC000279331220
48	49	1	0	0
SMALL
USER_CHARGES
@<TRIPOS>ATOM
1      C1      0.1943    0.6066   -0.1249 C.3      1 ZINC000279331220   -0.1500
2      C2      0.0769   -0.9182   -0.0814 C.3      1 ZINC000279331220    0.0500
3      O3     -1.3027   -1.2888   -0.0438 O.3      1 ZINC000279331220   -0.3000
4      C4     -1.5839   -2.6187   -0.0023 C.ar     1 ZINC000279331220    0.1000
5      C5     -0.5546   -3.5458    0.0080 C.ar     1 ZINC000279331220   -0.1700
6      C6     -0.8422   -4.8977    0.0507 C.ar     1 ZINC000279331220   -0.1200
7      C7     -2.1555   -5.3273    0.0828 C.ar     1 ZINC000279331220   -0.1200
8      C8     -3.1877   -4.4071    0.0723 C.ar     1 ZINC000279331220   -0.1700
9      C9     -2.9064   -3.0512    0.0359 C.ar     1 ZINC000279331220    0.1000
10     O10    -3.9203   -2.1450    0.0255 O.3      1 ZINC000279331220   -0.3000
11     C11    -5.2524   -2.6614    0.0537 C.3      1 ZINC000279331220    0.0600
12     C12    -6.2497   -1.5013    0.0370 C.3      1 ZINC000279331220   -0.1100
13     C13    -7.6759   -2.0542    0.0672 C.3      1 ZINC000279331220   -0.1300
14     C14    -8.6582   -0.9115    0.0507 C.2      1 ZINC000279331220    0.5200
15     O15    -8.2571    0.2325    0.0180 O.2      1 ZINC000279331220   -0.5200
16     N16    -9.9825   -1.1608    0.0723 N.am     1 ZINC000279331220   -0.5700
17     C17   -10.4671   -2.5428    0.1118 C.3      1 ZINC000279331220    0.0800
18     C18   -10.8912   -0.1037    0.0571 C.ar     1 ZINC000279331220    0.3400
19     N19   -11.2288    0.4871    1.1922 N.ar     1 ZINC000279331220   -0.4800
20     C20   -12.0848    1.4906    1.2222 C.ar     1 ZINC000279331220    0.1100
21     C21   -12.6628    1.9631    0.0607 C.ar     1 ZINC000279331220   -0.1600
22     C22   -12.3351    1.3705   -1.1514 C.ar     1 ZINC000279331220   -0.0700
23     C23   -11.4301    0.3239   -1.1512 C.ar     1 ZINC000279331220   -0.1200
24     C24   -11.0426   -0.3509   -2.4417 C.3      1 ZINC000279331220   -0.1100
25     H25     1.2466    0.8893   -0.1536 H        1 ZINC000279331220    0.0800
26     H26    -0.3078    0.9844   -1.0156 H        1 ZINC000279331220    0.0700
27     H27    -0.2722    1.0325    0.7634 H        1 ZINC000279331220    0.0700
28     H28     0.5434   -1.3441   -0.9697 H        1 ZINC000279331220    0.0600
29     H29     0.5790   -1.2961    0.8093 H        1 ZINC000279331220    0.0600
30     H30     0.4724   -3.2127   -0.0177 H        1 ZINC000279331220    0.1300
31     H31    -0.0389   -5.6195    0.0587 H        1 ZINC000279331220    0.1300
32     H32    -2.3760   -6.3841    0.1158 H        1 ZINC000279331220    0.1300
33     H33    -4.2130   -4.7455    0.0968 H        1 ZINC000279331220    0.1300
34     H34    -5.4156   -3.2935   -0.8192 H        1 ZINC000279331220    0.0600
35     H35    -5.3948   -3.2499    0.9601 H        1 ZINC000279331220    0.0600
36     H36    -6.0865   -0.8692    0.9099 H        1 ZINC000279331220    0.0800
37     H37    -6.1073   -0.9128   -0.8694 H        1 ZINC000279331220    0.0800
38     H38    -7.8391   -2.6863   -0.8057 H        1 ZINC000279331220    0.1000
39     H39    -7.8183   -2.6427    0.9736 H        1 ZINC000279331220    0.1000
40     H40   -10.4866   -2.8916    1.1443 H        1 ZINC000279331220    0.0700
41     H41   -11.4730   -2.5872   -0.3057 H        1 ZINC000279331220    0.0800
42     H42    -9.8023   -3.1778   -0.4737 H        1 ZINC000279331220    0.0800
43     H43   -12.3370    1.9481    2.1674 H        1 ZINC000279331220    0.1600
44     H44   -13.3628    2.7848    0.0947 H        1 ZINC000279331220    0.1400
45     H45   -12.7733    1.7215   -2.0740 H        1 ZINC000279331220    0.1400
46     H46   -10.1246    0.0957   -2.8239 H        1 ZINC000279331220    0.0800
47     H47   -10.8820   -1.4139   -2.2619 H        1 ZINC000279331220    0.0700
48     H48   -11.8408   -0.2225   -3.1728 H        1 ZINC000279331220    0.0700
@<TRIPOS>BOND
1     1     2     1
2     1     25    1
3     1     26    1
4     1     27    1
5     2     3     1
6     2     28    1
7     2     29    1
8     3     4     1
9     4     9     ar
10    4     5     ar
11    5     6     ar
12    5     30    1
13    6     7     ar
14    6     31    1
15    7     8     ar
16    7     32    1
17    8     9     ar
18    8     33    1
19    9     10    1
20    10    11    1
21    11    12    1
22    11    34    1
23    11    35    1
24    12    13    1
25    12    36    1
26    12    37    1
27    13    14    1
28    13    38    1
29    13    39    1
30    14    15    2
31    14    16    am
32    16    17    1
33    16    18    1
34    17    40    1
35    17    41    1
36    17    42    1
37    18    23    ar
38    18    19    ar
39    19    20    ar
40    20    21    ar
41    20    43    1
42    21    22    ar
43    21    44    1
44    22    23    ar
45    22    45    1
46    23    24    1
47    24    46    1
48    24    47    1
49    24    48    1
@<TRIPOS>SUBSTRUCTURE
1   ZINC000279331220 1     RESIDUE    1   A     ZIN   1
@<TRIPOS>MOLECULE
ZINC000156038173
48	48	1	0	0
SMALL
USER_CHARGES
@<TRIPOS>ATOM
1      C1      0.6107    1.1347    0.1342 C.3      1 ZINC000156038173    0.0700
2      N2      1.6633    0.3510   -0.5168 N.am     1 ZINC000156038173   -0.6300
3      C3      2.9686    0.1972    0.1305 C.3      1 ZINC000156038173    0.1500
4      C4      2.9515   -1.0446    1.0241 C.3      1 ZINC000156038173   -0.1400
5      C5      4.2942   -1.2028    1.6899 C.2      1 ZINC000156038173    0.4700
6      O6      5.1744   -0.4043    1.4720 O.2      1 ZINC000156038173   -0.5000
7      O7      4.5123   -2.2308    2.5250 O.3      1 ZINC000156038173   -0.3500
8      C8      5.8290   -2.3204    3.1304 C.3      1 ZINC000156038173    0.1200
9      C9      6.0993   -1.0586    3.9524 C.3      1 ZINC000156038173   -0.1800
10     C10     5.8880   -3.5464    4.0438 C.3      1 ZINC000156038173   -0.1400
11     C11     6.8871   -2.4506    2.0330 C.3      1 ZINC000156038173   -0.1800
12     C12     1.4310   -0.2286   -1.7112 C.2      1 ZINC000156038173    0.7100
13     O13     2.3046   -0.8791   -2.2515 O.2      1 ZINC000156038173   -0.5700
14     N14     0.2302   -0.0872   -2.3066 N.am     1 ZINC000156038173   -0.7400
15     C15    -0.0224   -0.7171   -3.6049 C.3      1 ZINC000156038173    0.1700
16     H16     0.5224   -1.6594   -3.6637 H        1 ZINC000156038173    0.1500
17     C17     0.4407    0.2004   -4.7071 C.ar     1 ZINC000156038173   -0.1300
18     C18     0.4876    1.5655   -4.4958 C.ar     1 ZINC000156038173   -0.0700
19     C19     0.9122    2.4086   -5.5060 C.ar     1 ZINC000156038173   -0.1000
20     C20     1.2906    1.8882   -6.7292 C.ar     1 ZINC000156038173   -0.1100
21     C21     1.2447    0.5216   -6.9439 C.ar     1 ZINC000156038173    0.0700
22     F22     1.6144    0.0121   -8.1393 F        1 ZINC000156038173   -0.1200
23     C23     0.8244   -0.3244   -5.9290 C.ar     1 ZINC000156038173    0.1000
24     F24     0.7787   -1.6586   -6.1363 F        1 ZINC000156038173   -0.1200
25     C25    -1.5210   -0.9840   -3.7594 C.3      1 ZINC000156038173    0.4500
26     F26    -2.2202    0.2254   -3.6840 F        1 ZINC000156038173   -0.1700
27     F27    -1.7622   -1.5856   -4.9992 F        1 ZINC000156038173   -0.1600
28     F28    -1.9509   -1.8358   -2.7362 F        1 ZINC000156038173   -0.1700
29     H29     0.6854    2.1756   -0.1804 H        1 ZINC000156038173    0.0600
30     H30    -0.3647    0.7388   -0.1486 H        1 ZINC000156038173    0.0700
31     H31     0.7281    1.0729    1.2161 H        1 ZINC000156038173    0.0800
32     H32     3.7408    0.0864   -0.6308 H        1 ZINC000156038173    0.1000
33     H33     3.1796    1.0782    0.7366 H        1 ZINC000156038173    0.0900
34     H34     2.1793   -0.9339    1.7853 H        1 ZINC000156038173    0.1100
35     H35     2.7405   -1.9256    0.4179 H        1 ZINC000156038173    0.1100
36     H36     5.3455   -0.9658    4.7342 H        1 ZINC000156038173    0.0600
37     H37     7.0878   -1.1259    4.4069 H        1 ZINC000156038173    0.0700
38     H38     6.0573   -0.1852    3.3017 H        1 ZINC000156038173    0.0800
39     H39     5.6954   -4.4454    3.4582 H        1 ZINC000156038173    0.0700
40     H40     6.8764   -3.6137    4.4983 H        1 ZINC000156038173    0.0800
41     H41     5.1341   -3.4537    4.8256 H        1 ZINC000156038173    0.0700
42     H42     6.8451   -1.5772    1.3823 H        1 ZINC000156038173    0.0800
43     H43     7.8756   -2.5179    2.4875 H        1 ZINC000156038173    0.0700
44     H44     6.6945   -3.3496    1.4474 H        1 ZINC000156038173    0.0600
45     H45    -0.4668    0.4318   -1.8756 H        1 ZINC000156038173    0.4100
46     H46     0.1920    1.9740   -3.5408 H        1 ZINC000156038173    0.1400
47     H47     0.9479    3.4750   -5.3392 H        1 ZINC000156038173    0.1500
48     H48     1.6217    2.5479   -7.5176 H        1 ZINC000156038173    0.1500
@<TRIPOS>BOND
1     1     2     1
2     1     29    1
3     1     30    1
4     1     31    1
5     2     3     1
6     2     12    am
7     3     4     1
8     3     32    1
9     3     33    1
10    4     5     1
11    4     34    1
12    4     35    1
13    5     6     2
14    5     7     1
15    7     8     1
16    8     9     1
17    8     10    1
18    8     11    1
19    9     36    1
20    9     37    1
21    9     38    1
22    10    39    1
23    10    40    1
24    10    41    1
25    11    42    1
26    11    43    1
27    11    44    1
28    12    13    2
29    12    14    am
30    14    15    1
31    14    45    1
32    15    16    1
33    15    17    1
34    15    25    1
35    17    23    ar
36    17    18    ar
37    18    19    ar
38    18    46    1
39    19    20    ar
40    19    47    1
41    20    21    ar
42    20    48    1
43    21    22    1
44    21    23    ar
45    23    24    1
46    25    26    1
47    25    27    1
48    25    28    1
@<TRIPOS>SUBSTRUCTURE
1   ZINC000156038173 1     RESIDUE    1   A     ZIN   1
@<TRIPOS>MOLECULE
ZINC000465642058
59	62	1	0	0
SMALL
USER_CHARGES
@<TRIPOS>ATOM
1      C1     -0.0187    1.5258    0.0104 C.3      1 ZINC000465642058   -0.1500
2      C2      0.0021   -0.0041    0.0020 C.3      1 ZINC000465642058    0.0500
3      O3      0.6932   -0.4774    1.1597 O.3      1 ZINC000465642058   -0.3000
4      C4      0.8020   -1.8250    1.3058 C.ar     1 ZINC000465642058    0.1200
5      C5      0.2605   -2.6759    0.3526 C.ar     1 ZINC000465642058   -0.1600
6      C6      0.3747   -4.0401    0.5048 C.ar     1 ZINC000465642058   -0.1300
7      C7      1.0330   -4.5814    1.6010 C.ar     1 ZINC000465642058    0.0700
8      C8      1.5703   -3.7226    2.5567 C.ar     1 ZINC000465642058   -0.0700
9      C9      1.4599   -2.3563    2.4054 C.ar     1 ZINC000465642058   -0.1100
10     C10     2.0457   -1.4366    3.4456 C.3      1 ZINC000465642058    0.1900
11     N11     0.9824   -0.9683    4.3379 N.am     1 ZINC000465642058   -0.7300
12     C12     1.2740   -0.1293    5.3515 C.2      1 ZINC000465642058    0.7100
13     O13     2.4197    0.2390    5.5253 O.2      1 ZINC000465642058   -0.5900
14     N14     0.2958    0.3015    6.1724 N.am     1 ZINC000465642058   -0.6200
15     C15    -1.0846   -0.1422    5.9629 C.3      1 ZINC000465642058    0.1900
16     C16    -1.3302   -1.4062    6.7459 C.2      1 ZINC000465642058    0.0500
17     N17    -1.0525   -2.6213    6.3481 N.2      1 ZINC000465642058   -0.2700
18     N18    -1.4313   -3.5110    7.3617 N.pl3    1 ZINC000465642058   -0.4700
19     C19    -1.9447   -2.7877    8.3787 C.2      1 ZINC000465642058    0.0600
20     C20    -1.8888   -1.4825    8.0260 C.2      1 ZINC000465642058   -0.2600
21     C21     0.6128    1.2136    7.2742 C.3      1 ZINC000465642058    0.1700
22     C22     0.4938    2.6381    6.7971 C.ar     1 ZINC000465642058   -0.1100
23     C23     1.5907    3.2780    6.2510 C.ar     1 ZINC000465642058   -0.0900
24     C24     1.4815    4.5847    5.8134 C.ar     1 ZINC000465642058   -0.1200
25     C25     0.2754    5.2514    5.9216 C.ar     1 ZINC000465642058   -0.1200
26     C26    -0.8217    4.6112    6.4669 C.ar     1 ZINC000465642058   -0.1300
27     C27    -0.7137    3.3031    6.9005 C.ar     1 ZINC000465642058   -0.1100
28     O28     1.0496   -5.9425    1.5432 O.3      1 ZINC000465642058   -0.3000
29     C29     0.0240   -6.3902    0.6406 C.3      1 ZINC000465642058    0.0800
30     H30    -0.9119   -6.5597    1.1730 H        1 ZINC000465642058    0.0900
31     C31     0.4644   -7.6578   -0.0944 C.3      1 ZINC000465642058   -0.1500
32     C32    -0.1110   -5.2018   -0.3405 C.3      1 ZINC000465642058   -0.1100
33     H33     1.0039    1.9031    0.0027 H        1 ZINC000465642058    0.0700
34     H34    -0.5459    1.8868   -0.8726 H        1 ZINC000465642058    0.0800
35     H35    -0.5289    1.8773    0.9072 H        1 ZINC000465642058    0.0700
36     H36    -1.0205   -0.3814    0.0098 H        1 ZINC000465642058    0.0600
37     H37     0.5123   -0.3556   -0.8948 H        1 ZINC000465642058    0.0600
38     H38    -0.2503   -2.2689   -0.5076 H        1 ZINC000465642058    0.1300
39     H39     2.0796   -4.1285    3.4183 H        1 ZINC000465642058    0.1400
40     H40     2.7958   -1.9746    4.0252 H        1 ZINC000465642058    0.0700
41     H41     2.5105   -0.5818    2.9543 H        1 ZINC000465642058    0.0800
42     H42     0.0684   -1.2621    4.1992 H        1 ZINC000465642058    0.4000
43     H43    -1.7710    0.6339    6.3013 H        1 ZINC000465642058    0.1000
44     H44    -1.2475   -0.3343    4.9024 H        1 ZINC000465642058    0.0900
45     H45    -1.3406   -4.4764    7.3368 H        1 ZINC000465642058    0.4400
46     H46    -2.3276   -3.1800    9.3093 H        1 ZINC000465642058    0.1800
47     H47    -2.2225   -0.6477    8.6245 H        1 ZINC000465642058    0.1500
48     H48    -0.0833    1.0463    8.0961 H        1 ZINC000465642058    0.0900
49     H49     1.6309    1.0291    7.6171 H        1 ZINC000465642058    0.0900
50     H50     2.5330    2.7572    6.1665 H        1 ZINC000465642058    0.1300
51     H51     2.3387    5.0849    5.3874 H        1 ZINC000465642058    0.1200
52     H52     0.1903    6.2725    5.5803 H        1 ZINC000465642058    0.1200
53     H53    -1.7640    5.1321    6.5517 H        1 ZINC000465642058    0.1200
54     H54    -1.5708    2.8029    7.3265 H        1 ZINC000465642058    0.1200
55     H55     0.6395   -8.4546    0.6284 H        1 ZINC000465642058    0.0700
56     H56    -0.3164   -7.9638   -0.7907 H        1 ZINC000465642058    0.0800
57     H57     1.3839   -7.4578   -0.6446 H        1 ZINC000465642058    0.0700
58     H58    -1.1496   -5.0590   -0.6388 H        1 ZINC000465642058    0.0900
59     H59     0.5273   -5.3424   -1.2128 H        1 ZINC000465642058    0.1000
@<TRIPOS>BOND
1     1     2     1
2     1     33    1
3     1     34    1
4     1     35    1
5     2     3     1
6     2     36    1
7     2     37    1
8     3     4     1
9     4     9     ar
10    4     5     ar
11    5     6     ar
12    5     38    1
13    6     32    1
14    6     7     ar
15    7     8     ar
16    7     28    1
17    8     9     ar
18    8     39    1
19    9     10    1
20    10    11    1
21    10    40    1
22    10    41    1
23    11    12    am
24    11    42    1
25    12    13    2
26    12    14    am
27    14    15    1
28    14    21    1
29    15    16    1
30    15    43    1
31    15    44    1
32    16    20    1
33    16    17    2
34    17    18    1
35    18    19    1
36    18    45    1
37    19    20    2
38    19    46    1
39    20    47    1
40    21    22    1
41    21    48    1
42    21    49    1
43    22    27    ar
44    22    23    ar
45    23    24    ar
46    23    50    1
47    24    25    ar
48    24    51    1
49    25    26    ar
50    25    52    1
51    26    27    ar
52    26    53    1
53    27    54    1
54    28    29    1
55    29    30    1
56    29    31    1
57    29    32    1
58    31    55    1
59    31    56    1
60    31    57    1
61    32    58    1
62    32    59    1
@<TRIPOS>SUBSTRUCTURE
1   ZINC000465642058 1     RESIDUE    1   A     ZIN   1
@<TRIPOS>MOLECULE
ZINC000543429378
50	53	1	0	0
SMALL
USER_CHARGES
@<TRIPOS>ATOM
1      O1      0.0518    0.2032    0.1943 O.2      1 ZINC000543429378   -0.5100
2      C2      0.0869    1.3131   -0.2934 C.2      1 ZINC000543429378    0.5200
3      N3      1.2535    1.8138   -0.7460 N.am     1 ZINC000543429378   -0.6600
4      C4      2.4419    1.1002   -0.5555 C.ar     1 ZINC000543429378    0.1900
5      C5      3.4552    1.1716   -1.5026 C.ar     1 ZINC000543429378   -0.1600
6      C6      4.6289    0.4673   -1.3142 C.ar     1 ZINC000543429378   -0.0600
7      C7      4.7976   -0.3097   -0.1842 C.ar     1 ZINC000543429378   -0.2100
8      C8      3.7882   -0.3847    0.7657 C.ar     1 ZINC000543429378    0.1300
9      O9      3.9555   -1.1494    1.8766 O.3      1 ZINC000543429378   -0.3100
10     C10     5.1953   -1.8489    2.0020 C.3      1 ZINC000543429378    0.6000
11     F11     6.2500   -0.9298    2.0159 F        1 ZINC000543429378   -0.1600
12     F12     5.1991   -2.5811    3.1941 F        1 ZINC000543429378   -0.1300
13     F13     5.3506   -2.7205    0.9189 F        1 ZINC000543429378   -0.1600
14     C14     2.6118    0.3247    0.5830 C.ar     1 ZINC000543429378   -0.1300
15     C15    -1.1751    2.1300   -0.3989 C.3      1 ZINC000543429378    0.0700
16     H16    -1.0042    2.9965   -1.0376 H        1 ZINC000543429378    0.1200
17     C17    -1.6251    2.5939    1.0136 C.3      1 ZINC000543429378   -0.1200
18     C18    -3.1534    2.4706    0.9143 C.3      1 ZINC000543429378   -0.1000
19     H19    -3.5800    3.3126    0.3693 H        1 ZINC000543429378    0.0900
20     C20    -3.8736    2.2557    2.2346 C.3      1 ZINC000543429378   -0.1100
21     C21    -5.3597    2.0314    1.9129 C.3      1 ZINC000543429378   -0.1200
22     C22    -5.5562    0.8408    0.9791 C.3      1 ZINC000543429378   -0.1100
23     C23    -4.7202    0.9901   -0.3029 C.3      1 ZINC000543429378   -0.0900
24     C24    -3.2731    1.1539    0.0997 C.3      1 ZINC000543429378    0.0700
25     H25    -2.9844    0.3264    0.7478 H        1 ZINC000543429378    0.0900
26     N26    -2.2723    1.2974   -0.9575 N.3      1 ZINC000543429378   -0.4300
27     C27    -1.7906    0.0624   -1.3556 C.ar     1 ZINC000543429378    0.5000
28     N28    -2.2625   -1.0326   -0.7779 N.ar     1 ZINC000543429378   -0.5300
29     C29    -1.8239   -2.2283   -1.1353 C.ar     1 ZINC000543429378    0.1800
30     C30    -0.8597   -2.3264   -2.1262 C.ar     1 ZINC000543429378   -0.2500
31     C31    -0.3880   -1.1609   -2.7094 C.ar     1 ZINC000543429378    0.1800
32     N32    -0.8726    0.0030   -2.3091 N.ar     1 ZINC000543429378   -0.5300
33     H33     1.2692    2.6688   -1.2038 H        1 ZINC000543429378    0.4200
34     H34     3.3255    1.7776   -2.3871 H        1 ZINC000543429378    0.1400
35     H35     5.4157    0.5239   -2.0518 H        1 ZINC000543429378    0.1400
36     H36     5.7158   -0.8596   -0.0400 H        1 ZINC000543429378    0.1400
37     H37     1.8254    0.2676    1.3211 H        1 ZINC000543429378    0.1500
38     H38    -1.2301    1.9331    1.7852 H        1 ZINC000543429378    0.0800
39     H39    -1.3286    3.6266    1.1976 H        1 ZINC000543429378    0.0900
40     H40    -3.4673    1.3798    2.7404 H        1 ZINC000543429378    0.0700
41     H41    -3.7598    3.1363    2.8668 H        1 ZINC000543429378    0.0700
42     H42    -5.9016    1.8494    2.8410 H        1 ZINC000543429378    0.0600
43     H43    -5.7604    2.9267    1.4376 H        1 ZINC000543429378    0.0600
44     H44    -5.2568   -0.0710    1.4960 H        1 ZINC000543429378    0.0600
45     H45    -6.6102    0.7678    0.7112 H        1 ZINC000543429378    0.0700
46     H46    -4.8337    0.1022   -0.9249 H        1 ZINC000543429378    0.0700
47     H47    -5.0419    1.8736   -0.8544 H        1 ZINC000543429378    0.0700
48     H48    -2.2121   -3.1172   -0.6605 H        1 ZINC000543429378    0.1600
49     H49    -0.4839   -3.2901   -2.4368 H        1 ZINC000543429378    0.1400
50     H50     0.3635   -1.2027   -3.4840 H        1 ZINC000543429378    0.1600
@<TRIPOS>BOND
1     1     2     2
2     2     3     am
3     2     15    1
4     3     4     1
5     3     33    1
6     4     14    ar
7     4     5     ar
8     5     6     ar
9     5     34    1
10    6     7     ar
11    6     35    1
12    7     8     ar
13    7     36    1
14    8     9     1
15    8     14    ar
16    9     10    1
17    10    11    1
18    10    12    1
19    10    13    1
20    14    37    1
21    15    16    1
22    15    26    1
23    15    17    1
24    17    18    1
25    17    38    1
26    17    39    1
27    18    19    1
28    18    24    1
29    18    20    1
30    20    21    1
31    20    40    1
32    20    41    1
33    21    22    1
34    21    42    1
35    21    43    1
36    22    23    1
37    22    44    1
38    22    45    1
39    23    24    1
40    23    46    1
41    23    47    1
42    24    25    1
43    24    26    1
44    26    27    1
45    27    32    ar
46    27    28    ar
47    28    29    ar
48    29    30    ar
49    29    48    1
50    30    31    ar
51    30    49    1
52    31    32    ar
53    31    50    1
@<TRIPOS>SUBSTRUCTURE
1   ZINC000543429378 1     RESIDUE    1   A     ZIN   1
@<TRIPOS>MOLECULE
ZINC001220212140
53	56	1	0	0
SMALL
USER_CHARGES
@<TRIPOS>ATOM
1      C1      1.5501   -0.5549    3.9592 C.3      1 ZINC001220212140   -0.1700
2      C2      1.4425    0.5139    2.8697 C.3      1 ZINC001220212140    0.0800
3      H3      0.7748    1.3165    3.1829 H        1 ZINC001220212140    0.1200
4      C4      2.8396    1.0724    2.5100 C.3      1 ZINC001220212140   -0.1100
5      C5      3.2403    0.1883    1.3447 C.ar     1 ZINC001220212140   -0.1500
6      C6      4.4526   -0.0406    0.7341 C.ar     1 ZINC001220212140   -0.0700
7      C7      4.5349   -0.9269   -0.3330 C.ar     1 ZINC001220212140    0.1400
8      N8      5.7664   -1.1644   -0.9584 N.am     1 ZINC001220212140   -0.6800
9      C9      6.9042   -1.1428   -0.2364 C.2      1 ZINC001220212140    0.7200
10     O10     6.8554   -1.0104    0.9713 O.2      1 ZINC001220212140   -0.5700
11     N11     8.0961   -1.2680   -0.8529 N.am     1 ZINC001220212140   -0.6300
12     C12     8.2996   -1.4274   -2.3003 C.3      1 ZINC001220212140    0.0900
13     C13     9.8216   -1.5030   -2.5434 C.3      1 ZINC001220212140   -0.1100
14     C14    10.4095   -0.8146   -1.2833 C.3      1 ZINC001220212140   -0.1300
15     H15    10.4046    0.2699   -1.3924 H        1 ZINC001220212140    0.1200
16     C16    11.7992   -1.3189   -0.9909 C.2      1 ZINC001220212140    0.5300
17     O17    12.3040   -2.1560   -1.7089 O.2      1 ZINC001220212140   -0.5100
18     N18    12.4810   -0.8397    0.0683 N.am     1 ZINC001220212140   -0.5700
19     C19    11.8319    0.0870    0.9989 C.3      1 ZINC001220212140    0.0700
20     C20    13.8088   -1.2274    0.2791 C.ar     1 ZINC001220212140    0.1400
21     C21    14.7723   -0.9635   -0.6856 C.ar     1 ZINC001220212140   -0.1100
22     C22    16.0821   -1.3475   -0.4745 C.ar     1 ZINC001220212140   -0.1100
23     C23    16.4344   -1.9944    0.6958 C.ar     1 ZINC001220212140   -0.1200
24     C24    15.4773   -2.2590    1.6581 C.ar     1 ZINC001220212140   -0.1100
25     C25    14.1671   -1.8718    1.4560 C.ar     1 ZINC001220212140   -0.1200
26     C26     9.4121   -1.2614   -0.1885 C.3      1 ZINC001220212140    0.1400
27     C27     3.3905   -1.5760   -0.7755 C.ar     1 ZINC001220212140   -0.1100
28     C28     2.1772   -1.3412   -0.1633 C.ar     1 ZINC001220212140   -0.1200
29     C29     2.0886   -0.4514    0.9040 C.ar     1 ZINC001220212140    0.0900
30     O30     0.9977   -0.0645    1.6310 O.3      1 ZINC001220212140   -0.3000
31     H31     2.2115   -1.3528    3.6214 H        1 ZINC001220212140    0.0600
32     H32     1.9542   -0.1083    4.8677 H        1 ZINC001220212140    0.0800
33     H33     0.5614   -0.9651    4.1647 H        1 ZINC001220212140    0.0700
34     H34     2.7745    2.1161    2.2027 H        1 ZINC001220212140    0.0900
35     H35     3.5322    0.9557    3.3435 H        1 ZINC001220212140    0.0900
36     H36     5.3388    0.4679    1.0841 H        1 ZINC001220212140    0.1400
37     H37     5.7999   -1.3444   -1.9110 H        1 ZINC001220212140    0.4100
38     H38     7.8234   -2.3463   -2.6426 H        1 ZINC001220212140    0.0700
39     H39     7.8816   -0.5713   -2.8299 H        1 ZINC001220212140    0.0700
40     H40    10.1513   -2.5401   -2.6055 H        1 ZINC001220212140    0.1000
41     H41    10.0958   -0.9555   -3.4452 H        1 ZINC001220212140    0.0900
42     H42    11.3490   -0.4777    1.7964 H        1 ZINC001220212140    0.0700
43     H43    12.5794    0.7544    1.4277 H        1 ZINC001220212140    0.0800
44     H44    11.0843    0.6738    0.4652 H        1 ZINC001220212140    0.0800
45     H45    14.4976   -0.4589   -1.6001 H        1 ZINC001220212140    0.1200
46     H46    16.8318   -1.1425   -1.2244 H        1 ZINC001220212140    0.1300
47     H47    17.4592   -2.2940    0.8583 H        1 ZINC001220212140    0.1300
48     H48    15.7556   -2.7651    2.5707 H        1 ZINC001220212140    0.1300
49     H49    13.4201   -2.0787    2.2079 H        1 ZINC001220212140    0.1200
50     H50     9.4183   -0.5549    0.6415 H        1 ZINC001220212140    0.0900
51     H51     9.6586   -2.2632    0.1632 H        1 ZINC001220212140    0.0700
52     H52     3.4505   -2.2674   -1.6030 H        1 ZINC001220212140    0.1300
53     H53     1.2913   -1.8502   -0.5135 H        1 ZINC001220212140    0.1300
@<TRIPOS>BOND
1     1     2     1
2     1     31    1
3     1     32    1
4     1     33    1
5     2     3     1
6     2     30    1
7     2     4     1
8     4     5     1
9     4     34    1
10    4     35    1
11    5     29    ar
12    5     6     ar
13    6     7     ar
14    6     36    1
15    7     8     1
16    7     27    ar
17    8     9     am
18    8     37    1
19    9     10    2
20    9     11    am
21    11    26    1
22    11    12    1
23    12    13    1
24    12    38    1
25    12    39    1
26    13    14    1
27    13    40    1
28    13    41    1
29    14    15    1
30    14    16    1
31    14    26    1
32    16    17    2
33    16    18    am
34    18    19    1
35    18    20    1
36    19    42    1
37    19    43    1
38    19    44    1
39    20    25    ar
40    20    21    ar
41    21    22    ar
42    21    45    1
43    22    23    ar
44    22    46    1
45    23    24    ar
46    23    47    1
47    24    25    ar
48    24    48    1
49    25    49    1
50    26    50    1
51    26    51    1
52    27    28    ar
53    27    52    1
54    28    29    ar
55    28    53    1
56    29    30    1
@<TRIPOS>SUBSTRUCTURE
1   ZINC001220212140 1     RESIDUE    1   A     ZIN   1
@<TRIPOS>MOLECULE
ZINC000967287417
50	52	1	0	0
SMALL
USER_CHARGES
@<TRIPOS>ATOM
1      C1     -0.0173    1.4248    0.0099 C.3      1 ZINC000967287417    0.0300
2      O2      0.0021   -0.0041    0.0020 O.3      1 ZINC000967287417   -0.3900
3      C3      0.6734   -0.5824    1.1231 C.3      1 ZINC000967287417    0.1400
4      C4      0.6333   -2.0848    1.0124 C.2      1 ZINC000967287417    0.0100
5      C5      1.5611   -2.8538    0.4010 C.2      1 ZINC000967287417   -0.1900
6      C6      1.1413   -4.1872    0.5281 C.2      1 ZINC000967287417   -0.1200
7      C7     -0.0361   -4.1639    1.2192 C.2      1 ZINC000967287417   -0.0700
8      C8     -0.8426   -5.3321    1.5873 C.2      1 ZINC000967287417    0.6100
9      O9     -0.4751   -6.4488    1.2728 O.2      1 ZINC000967287417   -0.5200
10     N10    -1.9909   -5.1691    2.2738 N.am     1 ZINC000967287417   -0.7000
11     C11    -2.7966   -6.3361    2.6415 C.3      1 ZINC000967287417    0.1600
12     H12    -2.7327   -7.0856    1.8526 H        1 ZINC000967287417    0.1000
13     C13    -2.2713   -6.9274    3.9516 C.3      1 ZINC000967287417    0.0400
14     N14    -2.3758   -5.9246    5.0193 N.3      1 ZINC000967287417   -0.5300
15     C15    -1.7538   -6.4088    6.2589 C.3      1 ZINC000967287417    0.1300
16     C16    -2.0908   -5.4711    7.3895 C.2      1 ZINC000967287417    0.0200
17     N17    -1.4660   -4.3735    7.7049 N.2      1 ZINC000967287417   -0.3500
18     O18    -1.9702   -3.8334    8.6621 O.3      1 ZINC000967287417    0.1000
19     C19    -3.0251   -4.5233    9.1181 C.2      1 ZINC000967287417   -0.0300
20     C20    -3.9012   -4.1621   10.2899 C.3      1 ZINC000967287417   -0.0800
21     C21    -3.1519   -5.6059    8.3140 C.2      1 ZINC000967287417   -0.2400
22     C22    -3.7734   -5.5366    5.2484 C.3      1 ZINC000967287417    0.0500
23     C23    -4.3435   -4.9039    3.9770 C.3      1 ZINC000967287417   -0.1100
24     C24    -4.2561   -5.9119    2.8267 C.3      1 ZINC000967287417   -0.1000
25     H25    -4.8626   -6.7865    3.0619 H        1 ZINC000967287417    0.0900
26     C26    -4.7702   -5.2644    1.5392 C.3      1 ZINC000967287417   -0.1500
27     O27    -0.3248   -2.8782    1.5088 O.3      1 ZINC000967287417   -0.1600
28     H28     1.0053    1.8021    0.0021 H        1 ZINC000967287417    0.0500
29     H29    -0.5445    1.7859   -0.8732 H        1 ZINC000967287417    0.0900
30     H30    -0.5275    1.7763    0.9067 H        1 ZINC000967287417    0.0500
31     H31     1.7103   -0.2468    1.1385 H        1 ZINC000967287417    0.0900
32     H32     0.1775   -0.2725    2.0430 H        1 ZINC000967287417    0.0700
33     H33     2.4571   -2.5077   -0.0926 H        1 ZINC000967287417    0.1600
34     H34     1.6508   -5.0621    0.1520 H        1 ZINC000967287417    0.1600
35     H35    -2.2839   -4.2790    2.5245 H        1 ZINC000967287417    0.4100
36     H36    -2.8624   -7.8038    4.2174 H        1 ZINC000967287417    0.0500
37     H37    -1.2280   -7.2175    3.8267 H        1 ZINC000967287417    0.0900
38     H38    -2.1302   -7.4055    6.4891 H        1 ZINC000967287417    0.0600
39     H39    -0.6721   -6.4495    6.1309 H        1 ZINC000967287417    0.0900
40     H40    -3.5490   -3.2309   10.7335 H        1 ZINC000967287417    0.0800
41     H41    -4.9292   -4.0367    9.9499 H        1 ZINC000967287417    0.0900
42     H42    -3.8590   -4.9577   11.0338 H        1 ZINC000967287417    0.0900
43     H43    -3.8889   -6.3934    8.3702 H        1 ZINC000967287417    0.1700
44     H44    -4.3575   -6.4195    5.5081 H        1 ZINC000967287417    0.0400
45     H45    -3.8212   -4.8166    6.0654 H        1 ZINC000967287417    0.0800
46     H46    -5.3856   -4.6302    4.1424 H        1 ZINC000967287417    0.0700
47     H47    -3.7685   -4.0130    3.7245 H        1 ZINC000967287417    0.0700
48     H48    -4.1617   -4.3913    1.3036 H        1 ZINC000967287417    0.0600
49     H49    -4.7076   -5.9823    0.7214 H        1 ZINC000967287417    0.0600
50     H50    -5.8074   -4.9584    1.6755 H        1 ZINC000967287417    0.0600
@<TRIPOS>BOND
1     1     2     1
2     1     28    1
3     1     29    1
4     1     30    1
5     2     3     1
6     3     4     1
7     3     31    1
8     3     32    1
9     4     27    1
10    4     5     2
11    5     6     1
12    5     33    1
13    6     7     2
14    6     34    1
15    7     8     1
16    7     27    1
17    8     9     2
18    8     10    am
19    10    11    1
20    10    35    1
21    11    12    1
22    11    24    1
23    11    13    1
24    13    14    1
25    13    36    1
26    13    37    1
27    14    15    1
28    14    22    1
29    15    16    1
30    15    38    1
31    15    39    1
32    16    21    1
33    16    17    2
34    17    18    1
35    18    19    1
36    19    20    1
37    19    21    2
38    20    40    1
39    20    41    1
40    20    42    1
41    21    43    1
42    22    23    1
43    22    44    1
44    22    45    1
45    23    24    1
46    23    46    1
47    23    47    1
48    24    25    1
49    24    26    1
50    26    48    1
51    26    49    1
52    26    50    1
@<TRIPOS>SUBSTRUCTURE
1   ZINC000967287417 1     RESIDUE    1   A     ZIN   1
@<TRIPOS>MOLECULE
ZINC000422507946
50	52	1	0	0
SMALL
USER_CHARGES
@<TRIPOS>ATOM
1      C1      0.8108    0.0133   -1.7730 C.3      1 ZINC000422507946   -0.1400
2      C2      0.5430   -1.4691   -1.5056 C.3      1 ZINC000422507946   -0.0400
3      H3      0.8530   -2.0706   -2.3601 H        1 ZINC000422507946    0.1100
4      C4     -0.9517   -1.6990   -1.2001 C.3      1 ZINC000422507946   -0.1400
5      C5     -1.0827   -2.8494   -0.1869 C.3      1 ZINC000422507946    0.1400
6      H6     -0.8527   -3.7990   -0.6699 H        1 ZINC000422507946    0.1100
7      N7     -2.4415   -2.8825    0.3598 N.am     1 ZINC000422507946   -0.6900
8      C8     -2.9444   -4.0345    0.8460 C.2      1 ZINC000422507946    0.5100
9      O9     -2.2717   -5.0443    0.8310 O.2      1 ZINC000422507946   -0.5000
10     C10    -4.3305   -4.0682    1.4037 C.2      1 ZINC000422507946    0.5100
11     O11    -4.9882   -3.0498    1.4565 O.2      1 ZINC000422507946   -0.5200
12     N12    -4.8500   -5.2298    1.8480 N.am     1 ZINC000422507946   -0.5700
13     C13    -6.2455   -5.2863    2.2904 C.3      1 ZINC000422507946    0.1400
14     C14    -7.1371   -5.5601    1.1067 C.ar     1 ZINC000422507946   -0.0800
15     C15    -7.5405   -4.5201    0.2905 C.ar     1 ZINC000422507946   -0.1100
16     C16    -8.3585   -4.7697   -0.7959 C.ar     1 ZINC000422507946   -0.0900
17     C17    -8.7736   -6.0595   -1.0669 C.ar     1 ZINC000422507946   -0.1500
18     C18    -8.3697   -7.1023   -0.2501 C.ar     1 ZINC000422507946    0.1000
19     F19    -8.7750   -8.3637   -0.5141 F        1 ZINC000422507946   -0.1400
20     C20    -7.5464   -6.8518    0.8343 C.ar     1 ZINC000422507946   -0.1500
21     C21    -4.0193   -6.4358    1.8885 C.3      1 ZINC000422507946    0.1400
22     C22    -2.9524   -6.3056    2.9951 C.3      1 ZINC000422507946   -0.1200
23     C23    -3.5804   -7.0247    4.2148 C.3      1 ZINC000422507946   -0.1300
24     C24    -4.3083   -8.2275    3.5648 C.3      1 ZINC000422507946   -0.1200
25     C25    -4.8814   -7.6578    2.2508 C.3      1 ZINC000422507946   -0.1600
26     C26    -0.0611   -2.5704    0.9468 C.3      1 ZINC000422507946   -0.0900
27     S27     1.4173   -2.0127    0.0085 S.3      1 ZINC000422507946   -0.2700
28     H28     1.8745    0.1627   -1.9585 H        1 ZINC000422507946    0.0700
29     H29     0.2414    0.3339   -2.6454 H        1 ZINC000422507946    0.0700
30     H30     0.5074    0.5996   -0.9056 H        1 ZINC000422507946    0.0700
31     H31    -1.3831   -0.7905   -0.7798 H        1 ZINC000422507946    0.0900
32     H32    -1.4771   -1.9592   -2.1189 H        1 ZINC000422507946    0.0900
33     H33    -2.9792   -2.0752    0.3718 H        1 ZINC000422507946    0.4100
34     H34    -6.3618   -6.0833    3.0249 H        1 ZINC000422507946    0.1100
35     H35    -6.5226   -4.3334    2.7413 H        1 ZINC000422507946    0.1000
36     H36    -7.2168   -3.5116    0.5018 H        1 ZINC000422507946    0.1400
37     H37    -8.6733   -3.9563   -1.4327 H        1 ZINC000422507946    0.1300
38     H38    -9.4131   -6.2541   -1.9151 H        1 ZINC000422507946    0.1400
39     H39    -7.2305   -7.6644    1.4718 H        1 ZINC000422507946    0.1400
40     H40    -3.5392   -6.5908    0.9223 H        1 ZINC000422507946    0.1100
41     H41    -2.0287   -6.8002    2.6946 H        1 ZINC000422507946    0.0800
42     H42    -2.7670   -5.2563    3.2248 H        1 ZINC000422507946    0.0600
43     H43    -2.8066   -7.3669    4.9020 H        1 ZINC000422507946    0.0700
44     H44    -4.2902   -6.3729    4.7241 H        1 ZINC000422507946    0.0600
45     H45    -3.6037   -9.0325    3.3563 H        1 ZINC000422507946    0.0700
46     H46    -5.1125   -8.5808    4.2103 H        1 ZINC000422507946    0.0700
47     H47    -5.9179   -7.3535    2.3964 H        1 ZINC000422507946    0.0900
48     H48    -4.8191   -8.4061    1.4608 H        1 ZINC000422507946    0.0800
49     H49    -0.4215   -1.7831    1.6089 H        1 ZINC000422507946    0.1000
50     H50     0.1559   -3.4804    1.5063 H        1 ZINC000422507946    0.1100
@<TRIPOS>BOND
1     1     2     1
2     1     28    1
3     1     29    1
4     1     30    1
5     2     3     1
6     2     27    1
7     2     4     1
8     4     5     1
9     4     31    1
10    4     32    1
11    5     6     1
12    5     7     1
13    5     26    1
14    7     8     am
15    7     33    1
16    8     9     2
17    8     10    1
18    10    11    2
19    10    12    am
20    12    13    1
21    12    21    1
22    13    14    1
23    13    34    1
24    13    35    1
25    14    20    ar
26    14    15    ar
27    15    16    ar
28    15    36    1
29    16    17    ar
30    16    37    1
31    17    18    ar
32    17    38    1
33    18    19    1
34    18    20    ar
35    20    39    1
36    21    25    1
37    21    22    1
38    21    40    1
39    22    23    1
40    22    41    1
41    22    42    1
42    23    24    1
43    23    43    1
44    23    44    1
45    24    25    1
46    24    45    1
47    24    46    1
48    25    47    1
49    25    48    1
50    26    27    1
51    26    49    1
52    26    50    1
@<TRIPOS>SUBSTRUCTURE
1   ZINC000422507946 1     RESIDUE    1   A     ZIN   1
@<TRIPOS>MOLECULE
oleObject5.pdb
49 51 1 0 0
SMALL
NO_CHARGES


@<TRIPOS>ATOM
      1 C          -1.4137   -1.4834    1.4797 C.3       1 UNL   -0.0394
      2 C          -0.7070   -0.6169    0.4418 C.ar      1 UNL   -0.0456
      3 C          -1.2383    0.6611    0.1786 C.ar      1 UNL   -0.0590
      4 C          -0.6522    1.5014   -0.7784 C.ar      1 UNL   -0.0620
      5 C           0.4731    1.0672   -1.4893 C.ar      1 UNL   -0.0619
      6 C           1.0098   -0.2036   -1.2383 C.ar      1 UNL   -0.0565
      7 C           0.4388   -1.0577   -0.2709 C.ar      1 UNL   -0.0188
      8 C           1.0588   -2.4469   -0.0680 C.3       1 UNL    0.0906
      9 N           0.7069   -3.3114   -1.2083 N.am      1 UNL   -0.3025
     10 C          -0.4594   -4.0533   -1.2606 C.2       1 UNL    0.2156
     11 O          -1.0385   -4.4201   -0.2526 O.2       1 UNL   -0.2774
     12 C          -1.0628   -4.1702   -2.6732 C.3       1 UNL    0.0382
     13 C          -1.5533   -2.7943   -3.1983 C.3       1 UNL   -0.0292
     14 C          -2.8615   -2.3515   -2.5074 C.3       1 UNL   -0.0041
     15 N          -3.9109   -3.3715   -2.6750 N.4       1 UNL   -0.3167
     16 C          -3.5360   -4.6907   -2.1355 C.3       1 UNL   -0.0041
     17 C          -2.2145   -5.2093   -2.7566 C.3       1 UNL   -0.0292
     18 C           2.5756   -2.3663    0.1759 C.ar      1 UNL    0.0681
     19 N           3.3751   -2.6293   -0.8864 N.ar      1 UNL   -0.2587
     20 C           4.7118   -2.5662   -0.7396 C.ar      1 UNL    0.0272
     21 C           5.3242   -2.2327    0.4772 C.ar      1 UNL   -0.0435
     22 C           4.5100   -1.9528    1.5838 C.ar      1 UNL   -0.0559
     23 C           3.1109   -2.0168    1.4412 C.ar      1 UNL   -0.0272
     24 C           2.2259   -1.7039    2.6412 C.3       1 UNL   -0.0379
     25 H          -2.1852   -0.9192    2.0182 H         1 UNL    0.0280
     26 H          -0.7179   -1.8669    2.2341 H         1 UNL    0.0280
     27 H          -1.9124   -2.3365    1.0071 H         1 UNL    0.0280
     28 H          -2.1172    1.0065    0.7160 H         1 UNL    0.0626
     29 H          -1.0735    2.4837   -0.9720 H         1 UNL    0.0623
     30 H           0.9269    1.7115   -2.2369 H         1 UNL    0.0623
     31 H           1.8750   -0.5275   -1.8090 H         1 UNL    0.0627
     32 H           0.6278   -2.9132    0.8229 H         1 UNL    0.0624
     33 H           1.1208   -3.0555   -2.0952 H         1 UNL    0.1504
     34 H          -0.2515   -4.5152   -3.3273 H         1 UNL    0.0402
     35 H          -1.7324   -2.8671   -4.2788 H         1 UNL    0.0288
     36 H          -0.7822   -2.0257   -3.0631 H         1 UNL    0.0288
     37 H          -3.1975   -1.3999   -2.9382 H         1 UNL    0.0428
     38 H          -2.6713   -2.1863   -1.4388 H         1 UNL    0.0428
     39 H          -4.1190   -3.4683   -3.6682 H         1 UNL    0.1222
     40 H          -4.3382   -5.4123   -2.3350 H         1 UNL    0.0428
     41 H          -3.4254   -4.6180   -1.0464 H         1 UNL    0.0428
     42 H          -2.3976   -5.4476   -3.8123 H         1 UNL    0.0288
     43 H          -1.9153   -6.1477   -2.2721 H         1 UNL    0.0288
     44 H           5.3081   -2.7894   -1.6234 H         1 UNL    0.0840
     45 H           6.4062   -2.1907    0.5594 H         1 UNL    0.0639
     46 H           4.9605   -1.6889    2.5365 H         1 UNL    0.0627
     47 H           2.8213   -1.4546    3.5284 H         1 UNL    0.0280
     48 H           1.5963   -2.5630    2.9032 H         1 UNL    0.0280
     49 H           1.5730   -0.8467    2.4369 H         1 UNL    0.0280
@<TRIPOS>BOND
     1    1    2 1
     2    1   25 1
     3    1   26 1
     4    1   27 1
     5    2    3 ar
     6    2    7 ar
     7    3    4 ar
     8    3   28 1
     9    4    5 ar
    10    4   29 1
    11    5    6 ar
    12    5   30 1
    13    6    7 ar
    14    6   31 1
    15    7    8 1
    16    8    9 1
    17    8   18 1
    18    8   32 1
    19    9   10 am
    20    9   33 1
    21   10   11 2
    22   10   12 1
    23   12   13 1
    24   12   17 1
    25   12   34 1
    26   13   14 1
    27   13   35 1
    28   13   36 1
    29   14   15 1
    30   14   37 1
    31   14   38 1
    32   15   16 1
    33   15   39 1
    34   16   17 1
    35   16   40 1
    36   16   41 1
    37   17   42 1
    38   17   43 1
    39   18   19 ar
    40   18   23 ar
    41   19   20 ar
    42   20   21 ar
    43   20   44 1
    44   21   22 ar
    45   21   45 1
    46   22   23 ar
    47   22   46 1
    48   23   24 1
    49   24   47 1
    50   24   48 1
    51   24   49 1
@<TRIPOS>SUBSTRUCTURE
     1 UNL     1 RESIDUE           4 A     UNL     0 ROOT
@<TRIPOS>MOLECULE
oleObject14.pdb
60 63 1 0 0
SMALL
NO_CHARGES


@<TRIPOS>ATOM
      1 C           1.4579   -3.0566    3.2435 C.ar      1 UNL    0.0422
      2 C           0.8606   -1.8148    2.9756 C.ar      1 UNL   -0.0408
      3 C          -0.4459   -1.7583    2.4621 C.ar      1 UNL   -0.0288
      4 C          -1.1632   -2.9481    2.2133 C.ar      1 UNL    0.0937
      5 C          -0.5556   -4.1909    2.4856 C.ar      1 UNL    0.0723
      6 C           0.7510   -4.2443    2.9990 C.ar      1 UNL   -0.0221
      7 CL         -1.4109   -5.6935    2.1915 Cl        1 UNL   -0.0814
      8 O          -2.4495   -2.9361    1.7090 O.3       1 UNL   -0.3432
      9 C          -3.1655   -1.7316    1.3832 C.3       1 UNL    0.0661
     10 C          -4.5589   -2.1390    0.8611 C.3       1 UNL    0.0222
     11 N          -5.4673   -0.9905    0.6475 N.4       1 UNL   -0.3010
     12 C          -4.9911   -0.0175   -0.3634 C.3       1 UNL   -0.0010
     13 C          -5.9206    1.2127   -0.4616 C.3       1 UNL   -0.0289
     14 C          -7.3990    0.8304   -0.7145 C.3       1 UNL    0.0382
     15 C          -7.8469   -0.2569    0.2946 C.3       1 UNL   -0.0289
     16 C          -6.8553   -1.4391    0.4034 C.3       1 UNL   -0.0010
     17 C          -7.6365    0.4031   -2.1841 C.2       1 UNL    0.2156
     18 O          -7.2607   -0.6739   -2.6098 O.2       1 UNL   -0.2774
     19 N          -8.3367    1.2408   -3.0427 N.am      1 UNL   -0.3025
     20 C          -8.7563    2.6336   -2.7985 C.3       1 UNL    0.0900
     21 C          -7.5782    3.5799   -2.5748 C.ar      1 UNL   -0.0217
     22 C          -6.4430    3.5408   -3.4095 C.ar      1 UNL   -0.0568
     23 C          -5.3638    4.4105   -3.1828 C.ar      1 UNL   -0.0619
     24 C          -5.4118    5.3288   -2.1222 C.ar      1 UNL   -0.0622
     25 C          -6.5413    5.3782   -1.2903 C.ar      1 UNL   -0.0619
     26 C          -7.6203    4.5084   -1.5173 C.ar      1 UNL   -0.0568
     27 C          -9.6619    3.1530   -3.9111 C.ar      1 UNL    0.0652
     28 C          -9.3168    3.0176   -5.2718 C.ar      1 UNL   -0.0383
     29 C         -10.1878    3.5240   -6.2497 C.ar      1 UNL   -0.0588
     30 C         -11.3732    4.1495   -5.8333 C.ar      1 UNL   -0.0438
     31 C         -11.6389    4.2436   -4.4564 C.ar      1 UNL    0.0272
     32 N         -10.8035    3.7580   -3.5159 N.ar      1 UNL   -0.2590
     33 CL          3.0860   -3.1236    3.8833 Cl        1 UNL   -0.0843
     34 H           1.4083   -0.8960    3.1654 H         1 UNL    0.0639
     35 H          -0.8880   -0.7875    2.2629 H         1 UNL    0.0652
     36 H           1.2141   -5.2048    3.2067 H         1 UNL    0.0655
     37 H          -2.6221   -1.1695    0.6142 H         1 UNL    0.0586
     38 H          -3.2799   -1.1041    2.2764 H         1 UNL    0.0586
     39 H          -5.0049   -2.8181    1.5995 H         1 UNL    0.0455
     40 H          -4.4409   -2.7014   -0.0744 H         1 UNL    0.0455
     41 H          -4.9294   -0.5046   -1.3454 H         1 UNL    0.0431
     42 H          -3.9875    0.3423   -0.1090 H         1 UNL    0.0431
     43 H          -5.5609    1.8837   -1.2503 H         1 UNL    0.0288
     44 H          -5.8560    1.7737    0.4797 H         1 UNL    0.0288
     45 H          -8.0065    1.7127   -0.4962 H         1 UNL    0.0402
     46 H          -8.8440   -0.6298    0.0278 H         1 UNL    0.0288
     47 H          -7.9407    0.2036    1.2867 H         1 UNL    0.0288
     48 H          -6.8935   -2.0325   -0.5188 H         1 UNL    0.0431
     49 H          -7.1838   -2.0914    1.2229 H         1 UNL    0.0431
     50 H          -8.4924    0.8781   -3.9746 H         1 UNL    0.1504
     51 H          -9.3634    2.6242   -1.8842 H         1 UNL    0.0624
     52 H          -6.3902    2.8307   -4.2295 H         1 UNL    0.0626
     53 H          -4.4908    4.3715   -3.8280 H         1 UNL    0.0623
     54 H          -4.5772    6.0018   -1.9471 H         1 UNL    0.0623
     55 H          -6.5815    6.0907   -0.4713 H         1 UNL    0.0623
     56 H          -8.4909    4.5560   -0.8689 H         1 UNL    0.0626
     57 H          -8.3923    2.5302   -5.5661 H         1 UNL    0.0643
     58 H          -9.9491    3.4340   -7.3055 H         1 UNL    0.0624
     59 H         -12.0716    4.5536   -6.5602 H         1 UNL    0.0639
     60 H         -12.5481    4.7227   -4.0952 H         1 UNL    0.0840
@<TRIPOS>BOND
     1    1    2 ar
     2    1    6 ar
     3    1   33 1
     4    2    3 ar
     5    2   34 1
     6    3    4 ar
     7    3   35 1
     8    4    5 ar
     9    4    8 1
    10    5    6 ar
    11    5    7 1
    12    6   36 1
    13    8    9 1
    14    9   10 1
    15    9   37 1
    16    9   38 1
    17   10   11 1
    18   10   39 1
    19   10   40 1
    20   11   12 1
    21   11   16 1
    22   12   13 1
    23   12   41 1
    24   12   42 1
    25   13   14 1
    26   13   43 1
    27   13   44 1
    28   14   15 1
    29   14   17 1
    30   14   45 1
    31   15   16 1
    32   15   46 1
    33   15   47 1
    34   16   48 1
    35   16   49 1
    36   17   18 2
    37   17   19 am
    38   19   20 1
    39   19   50 1
    40   20   21 1
    41   20   27 1
    42   20   51 1
    43   21   22 ar
    44   21   26 ar
    45   22   23 ar
    46   22   52 1
    47   23   24 ar
    48   23   53 1
    49   24   25 ar
    50   24   54 1
    51   25   26 ar
    52   25   55 1
    53   26   56 1
    54   27   28 ar
    55   27   32 ar
    56   28   29 ar
    57   28   57 1
    58   29   30 ar
    59   29   58 1
    60   30   31 ar
    61   30   59 1
    62   31   32 ar
    63   31   60 1
@<TRIPOS>SUBSTRUCTURE
     1 UNL     1 RESIDUE           4 A     UNL     0 ROOT
@<TRIPOS>MOLECULE
oleObject15.pdb
62 64 1 0 0
SMALL
NO_CHARGES


@<TRIPOS>ATOM
      1 O          -2.7998    0.4260    0.2352 O.3       1 UNL   -0.3745
      2 C          -1.3818    0.2515    0.0153 C.3       1 UNL    0.0600
      3 C          -0.9875   -1.1782    0.4532 C.3       1 UNL    0.0217
      4 N          -1.7392   -2.2598   -0.2253 N.4       1 UNL   -0.3010
      5 C          -1.6403   -2.2489   -1.7029 C.3       1 UNL   -0.0010
      6 C          -2.5503   -3.3172   -2.3473 C.3       1 UNL   -0.0289
      7 C          -2.3031   -4.7370   -1.7831 C.3       1 UNL    0.0382
      8 C          -2.3245   -4.7042   -0.2340 C.3       1 UNL   -0.0289
      9 C          -1.4476   -3.5817    0.3686 C.3       1 UNL   -0.0010
     10 C          -0.9978   -5.3561   -2.3417 C.2       1 UNL    0.2156
     11 O           0.1009   -4.9952   -1.9605 O.2       1 UNL   -0.2774
     12 N          -1.0646   -6.3857   -3.2717 N.am      1 UNL   -0.3025
     13 C          -2.2594   -6.8858   -3.9774 C.3       1 UNL    0.0900
     14 C          -2.9135   -5.8275   -4.8638 C.ar      1 UNL   -0.0217
     15 C          -2.1416   -5.0113   -5.7152 C.ar      1 UNL   -0.0568
     16 C          -2.7579   -4.0346   -6.5144 C.ar      1 UNL   -0.0619
     17 C          -4.1509   -3.8679   -6.4717 C.ar      1 UNL   -0.0622
     18 C          -4.9272   -4.6808   -5.6310 C.ar      1 UNL   -0.0619
     19 C          -4.3107   -5.6576   -4.8321 C.ar      1 UNL   -0.0568
     20 C          -1.9540   -8.1477   -4.7790 C.ar      1 UNL    0.0652
     21 C          -0.8484   -8.2225   -5.6513 C.ar      1 UNL   -0.0383
     22 C          -0.6249   -9.4087   -6.3685 C.ar      1 UNL   -0.0588
     23 C          -1.5153  -10.4787   -6.1898 C.ar      1 UNL   -0.0438
     24 C          -2.5928  -10.3189   -5.3018 C.ar      1 UNL    0.0272
     25 N          -2.8091   -9.1804   -4.6123 N.ar      1 UNL   -0.2590
     26 C          -3.4488    1.6397   -0.2127 C.3       1 UNL    0.0599
     27 C          -3.3850    1.7234   -1.7585 C.3       1 UNL   -0.0364
     28 C          -4.9174    1.5020    0.2485 C.3       1 UNL   -0.0364
     29 C          -2.7923    2.8721    0.4583 C.3       1 UNL   -0.0364
     30 H          -0.8112    0.9729    0.6125 H         1 UNL    0.0581
     31 H          -1.1190    0.3983   -1.0379 H         1 UNL    0.0581
     32 H          -1.1517   -1.2508    1.5359 H         1 UNL    0.0455
     33 H           0.0871   -1.3137    0.2767 H         1 UNL    0.0455
     34 H          -0.6003   -2.4244   -2.0067 H         1 UNL    0.0431
     35 H          -1.9439   -1.2733   -2.1001 H         1 UNL    0.0431
     36 H          -2.4134   -3.3097   -3.4348 H         1 UNL    0.0288
     37 H          -3.5961   -3.0395   -2.1619 H         1 UNL    0.0288
     38 H          -3.1505   -5.3593   -2.0825 H         1 UNL    0.0402
     39 H          -2.0135   -5.6770    0.1675 H         1 UNL    0.0288
     40 H          -3.3587   -4.5451    0.0980 H         1 UNL    0.0288
     41 H          -0.3886   -3.8266    0.2193 H         1 UNL    0.0431
     42 H          -1.6247   -3.5481    1.4513 H         1 UNL    0.0431
     43 H          -0.1744   -6.7712   -3.5597 H         1 UNL    0.1504
     44 H          -2.9828   -7.1771   -3.2052 H         1 UNL    0.0624
     45 H          -1.0621   -5.1248   -5.7521 H         1 UNL    0.0626
     46 H          -2.1556   -3.4063   -7.1643 H         1 UNL    0.0623
     47 H          -4.6276   -3.1121   -7.0894 H         1 UNL    0.0623
     48 H          -6.0057   -4.5548   -5.5987 H         1 UNL    0.0623
     49 H          -4.9207   -6.2825   -4.1857 H         1 UNL    0.0626
     50 H          -0.1758   -7.3787   -5.7717 H         1 UNL    0.0643
     51 H           0.2185   -9.4959   -7.0474 H         1 UNL    0.0624
     52 H          -1.3754  -11.4120   -6.7272 H         1 UNL    0.0639
     53 H          -3.3051  -11.1266   -5.1376 H         1 UNL    0.0840
     54 H          -3.7323    0.7873   -2.2143 H         1 UNL    0.0260
     55 H          -2.3650    1.9188   -2.1108 H         1 UNL    0.0260
     56 H          -4.0216    2.5366   -2.1292 H         1 UNL    0.0260
     57 H          -5.3841    0.6127   -0.1945 H         1 UNL    0.0260
     58 H          -5.5078    2.3782   -0.0480 H         1 UNL    0.0260
     59 H          -4.9768    1.4066    1.3403 H         1 UNL    0.0260
     60 H          -1.7735    3.0375    0.0867 H         1 UNL    0.0260
     61 H          -2.7445    2.7446    1.5474 H         1 UNL    0.0260
     62 H          -3.3706    3.7810    0.2495 H         1 UNL    0.0260
@<TRIPOS>BOND
     1    1    2 1
     2    1   26 1
     3    2    3 1
     4    2   30 1
     5    2   31 1
     6    3    4 1
     7    3   32 1
     8    3   33 1
     9    4    5 1
    10    4    9 1
    11    5    6 1
    12    5   34 1
    13    5   35 1
    14    6    7 1
    15    6   36 1
    16    6   37 1
    17    7    8 1
    18    7   10 1
    19    7   38 1
    20    8    9 1
    21    8   39 1
    22    8   40 1
    23    9   41 1
    24    9   42 1
    25   10   11 2
    26   10   12 am
    27   12   13 1
    28   12   43 1
    29   13   14 1
    30   13   20 1
    31   13   44 1
    32   14   15 ar
    33   14   19 ar
    34   15   16 ar
    35   15   45 1
    36   16   17 ar
    37   16   46 1
    38   17   18 ar
    39   17   47 1
    40   18   19 ar
    41   18   48 1
    42   19   49 1
    43   20   21 ar
    44   20   25 ar
    45   21   22 ar
    46   21   50 1
    47   22   23 ar
    48   22   51 1
    49   23   24 ar
    50   23   52 1
    51   24   25 ar
    52   24   53 1
    53   26   27 1
    54   26   28 1
    55   26   29 1
    56   27   54 1
    57   27   55 1
    58   27   56 1
    59   28   57 1
    60   28   58 1
    61   28   59 1
    62   29   60 1
    63   29   61 1
    64   29   62 1
@<TRIPOS>SUBSTRUCTURE
     1 UNL     1 RESIDUE           4 A     UNL     0 ROOT
@<TRIPOS>MOLECULE
oleObject17.pdb
57 59 1 0 0
SMALL
NO_CHARGES


@<TRIPOS>ATOM
      1 C           4.2634    1.2761    1.2642 C.3       1 UNL    0.0391
      2 C           4.5161    0.7145   -0.1366 C.ar      1 UNL   -0.0277
      3 C           5.2814    1.4014   -1.1126 C.ar      1 UNL   -0.0463
      4 C           5.4422    0.8335   -2.3919 C.ar      1 UNL   -0.0590
      5 C           4.8578   -0.4017   -2.7073 C.ar      1 UNL   -0.0620
      6 C           4.1160   -1.0900   -1.7383 C.ar      1 UNL   -0.0619
      7 C           3.9527   -0.5356   -0.4602 C.ar      1 UNL   -0.0572
      8 C           5.9493    2.7416   -0.8250 C.3       1 UNL   -0.0394
      9 N           2.8345    1.5607    1.5165 N.am      1 UNL   -0.3003
     10 C           2.1807    2.6007    0.8561 C.2       1 UNL    0.2175
     11 O           2.8220    3.5425    0.4219 O.2       1 UNL   -0.2772
     12 C           0.7411    2.3106    0.3552 C.3       1 UNL    0.0384
     13 C           0.6744    1.0931   -0.6012 C.3       1 UNL   -0.0289
     14 C           1.3465    1.4017   -1.9532 C.3       1 UNL   -0.0010
     15 N           0.7415    2.5804   -2.6114 N.4       1 UNL   -0.3010
     16 C           0.6883    3.7959   -1.7656 C.3       1 UNL   -0.0010
     17 C           0.0922    3.5273   -0.3596 C.3       1 UNL   -0.0289
     18 C           1.2659    2.8245   -3.9746 C.3       1 UNL    0.0222
     19 C           2.7661    3.1983   -4.0039 C.3       1 UNL    0.0661
     20 O           3.1763    3.3193   -5.3764 O.3       1 UNL   -0.3432
     21 C           4.4848    3.5614   -5.7488 C.ar      1 UNL    0.0937
     22 C           5.4838    3.8775   -4.8028 C.ar      1 UNL   -0.0288
     23 C           6.8049    4.1089   -5.2199 C.ar      1 UNL   -0.0408
     24 C           7.1360    4.0292   -6.5816 C.ar      1 UNL    0.0422
     25 C           6.1477    3.7194   -7.5290 C.ar      1 UNL   -0.0221
     26 C           4.8256    3.4866   -7.1146 C.ar      1 UNL    0.0723
     27 CL          3.6161    3.0961   -8.3230 Cl        1 UNL   -0.0814
     28 CL          8.7836    4.3173   -7.0985 Cl        1 UNL   -0.0843
     29 C           2.1632    0.6926    2.5011 C.3       1 UNL    0.0031
     30 H           4.8314    2.1985    1.4286 H         1 UNL    0.0520
     31 H           4.6301    0.5477    1.9983 H         1 UNL    0.0520
     32 H           6.0231    1.3514   -3.1497 H         1 UNL    0.0626
     33 H           4.9860   -0.8271   -3.6987 H         1 UNL    0.0623
     34 H           3.6668   -2.0497   -1.9769 H         1 UNL    0.0623
     35 H           3.3719   -1.0759    0.2815 H         1 UNL    0.0626
     36 H           6.5904    2.6826    0.0631 H         1 UNL    0.0280
     37 H           5.2055    3.5290   -0.6584 H         1 UNL    0.0280
     38 H           6.5843    3.0652   -1.6589 H         1 UNL    0.0280
     39 H           0.1305    2.0879    1.2382 H         1 UNL    0.0402
     40 H          -0.3766    0.8313   -0.7797 H         1 UNL    0.0288
     41 H           1.1387    0.2093   -0.1514 H         1 UNL    0.0288
     42 H           1.2561    0.5226   -2.6041 H         1 UNL    0.0431
     43 H           2.4136    1.5778   -1.7761 H         1 UNL    0.0431
     44 H           0.0825    4.5640   -2.2631 H         1 UNL    0.0431
     45 H           1.6963    4.2092   -1.6481 H         1 UNL    0.0431
     46 H          -0.9832    3.3374   -0.4710 H         1 UNL    0.0288
     47 H           0.1861    4.4264    0.2628 H         1 UNL    0.0288
     48 H           0.6925    3.6313   -4.4488 H         1 UNL    0.0455
     49 H           1.1203    1.9229   -4.5834 H         1 UNL    0.0455
     50 H           3.3563    2.4149   -3.5148 H         1 UNL    0.0586
     51 H           2.9275    4.1462   -3.4765 H         1 UNL    0.0586
     52 H           5.2501    3.9481   -3.7455 H         1 UNL    0.0651
     53 H           7.5697    4.3508   -4.4872 H         1 UNL    0.0639
     54 H           6.4052    3.6585   -8.5826 H         1 UNL    0.0655
     55 H           2.8655    0.4030    3.2930 H         1 UNL    0.0433
     56 H           1.7879   -0.2136    2.0106 H         1 UNL    0.0433
     57 H           1.3255    1.2255    2.9675 H         1 UNL    0.0433
@<TRIPOS>BOND
     1    1    2 1
     2    1    9 1
     3    1   30 1
     4    1   31 1
     5    2    3 ar
     6    2    7 ar
     7    3    4 ar
     8    3    8 1
     9    4    5 ar
    10    4   32 1
    11    5    6 ar
    12    5   33 1
    13    6    7 ar
    14    6   34 1
    15    7   35 1
    16    8   36 1
    17    8   37 1
    18    8   38 1
    19    9   10 am
    20    9   29 1
    21   10   11 2
    22   10   12 1
    23   12   13 1
    24   12   17 1
    25   12   39 1
    26   13   14 1
    27   13   40 1
    28   13   41 1
    29   14   15 1
    30   14   42 1
    31   14   43 1
    32   15   16 1
    33   15   18 1
    34   16   17 1
    35   16   44 1
    36   16   45 1
    37   17   46 1
    38   17   47 1
    39   18   19 1
    40   18   48 1
    41   18   49 1
    42   19   20 1
    43   19   50 1
    44   19   51 1
    45   20   21 1
    46   21   22 ar
    47   21   26 ar
    48   22   23 ar
    49   22   52 1
    50   23   24 ar
    51   23   53 1
    52   24   25 ar
    53   24   28 1
    54   25   26 ar
    55   25   54 1
    56   26   27 1
    57   29   55 1
    58   29   56 1
    59   29   57 1
@<TRIPOS>SUBSTRUCTURE
     1 UNL     1 RESIDUE           4 A     UNL     0 ROOT
@<TRIPOS>MOLECULE
oleObject27.pdb
65 68 1 0 0
SMALL
NO_CHARGES


@<TRIPOS>ATOM
      1 C           1.7289   -0.6484    4.3581 C.ar      1 UNL   -0.0620
      2 C           2.0241   -1.7187    3.5014 C.ar      1 UNL   -0.0590
      3 C           2.2522   -1.5001    2.1288 C.ar      1 UNL   -0.0456
      4 C           2.1900   -0.1835    1.6081 C.ar      1 UNL   -0.0187
      5 C           1.8807    0.8826    2.4812 C.ar      1 UNL   -0.0565
      6 C           1.6539    0.6534    3.8463 C.ar      1 UNL   -0.0619
      7 C           2.4349    0.0934    0.1163 C.3       1 UNL    0.0921
      8 C           1.1627   -0.0421   -0.7263 C.ar      1 UNL    0.0681
      9 C           1.1576   -0.6916   -1.9862 C.ar      1 UNL   -0.0272
     10 C          -0.0550   -0.7590   -2.6979 C.ar      1 UNL   -0.0559
     11 C          -1.2053   -0.1771   -2.1455 C.ar      1 UNL   -0.0435
     12 C          -1.1046    0.4600   -0.8997 C.ar      1 UNL    0.0272
     13 N           0.0500    0.5295   -0.2109 N.ar      1 UNL   -0.2587
     14 C           2.4155   -1.3017   -2.5939 C.3       1 UNL   -0.0379
     15 N           3.0715    1.3959   -0.1275 N.am      1 UNL   -0.2865
     16 C           4.4318    1.6238   -0.0228 C.2       1 UNL    0.3014
     17 O           5.2153    0.7283    0.2457 O.2       1 UNL   -0.2541
     18 N           4.8395    2.9415   -0.2390 N.am      1 UNL   -0.2833
     19 C           3.8689    4.0615   -0.3771 C.3       1 UNL    0.0284
     20 C           4.4563    5.3662   -0.9682 C.3       1 UNL    0.0142
     21 N           5.7441    5.7345   -0.3547 N.4       1 UNL   -0.2979
     22 C           6.7148    4.6426   -0.5662 C.3       1 UNL    0.0142
     23 C           6.2436    3.3121    0.0647 C.3       1 UNL    0.0284
     24 C           5.6064    6.2141    1.0416 C.3       1 UNL    0.0223
     25 C           6.9135    6.7952    1.6173 C.3       1 UNL    0.0661
     26 O           6.6127    7.3435    2.9126 O.3       1 UNL   -0.3432
     27 C           7.5531    7.9479    3.7245 C.ar      1 UNL    0.0937
     28 C           8.8988    8.0994    3.3268 C.ar      1 UNL   -0.0288
     29 C           9.8232    8.7204    4.1833 C.ar      1 UNL   -0.0408
     30 C           9.4110    9.1930    5.4392 C.ar      1 UNL    0.0422
     31 C           8.0744    9.0464    5.8418 C.ar      1 UNL   -0.0221
     32 C           7.1477    8.4260    4.9875 C.ar      1 UNL    0.0723
     33 CL          5.4854    8.2582    5.5208 Cl        1 UNL   -0.0814
     34 CL         10.5654    9.9664    6.5041 Cl        1 UNL   -0.0843
     35 C           2.5531   -2.7014    1.2387 C.3       1 UNL   -0.0394
     36 H           1.5532   -0.8290    5.4147 H         1 UNL    0.0623
     37 H           2.0729   -2.7247    3.9085 H         1 UNL    0.0626
     38 H           1.8073    1.8980    2.1032 H         1 UNL    0.0627
     39 H           1.4183    1.4842    4.5050 H         1 UNL    0.0623
     40 H           3.1517   -0.6569   -0.2300 H         1 UNL    0.0625
     41 H          -0.1054   -1.2502   -3.6656 H         1 UNL    0.0627
     42 H          -2.1536   -0.2134   -2.6734 H         1 UNL    0.0639
     43 H          -1.9731    0.9288   -0.4387 H         1 UNL    0.0840
     44 H           3.2329   -0.5704   -2.6283 H         1 UNL    0.0280
     45 H           2.2427   -1.6460   -3.6213 H         1 UNL    0.0280
     46 H           2.7560   -2.1659   -2.0103 H         1 UNL    0.0280
     47 H           2.4739    2.1811   -0.3443 H         1 UNL    0.1521
     48 H           3.4564    4.2759    0.6171 H         1 UNL    0.0484
     49 H           3.0371    3.7554   -1.0234 H         1 UNL    0.0484
     50 H           3.7300    6.1807   -0.8511 H         1 UNL    0.0447
     51 H           4.6054    5.2177   -2.0457 H         1 UNL    0.0447
     52 H           7.7026    4.9078   -0.1717 H         1 UNL    0.0447
     53 H           6.8375    4.4827   -1.6453 H         1 UNL    0.0447
     54 H           6.3478    3.3776    1.1551 H         1 UNL    0.0484
     55 H           6.9127    2.5139   -0.2815 H         1 UNL    0.0484
     56 H           5.2627    5.4026    1.6954 H         1 UNL    0.0455
     57 H           4.8457    7.0048    1.0745 H         1 UNL    0.0455
     58 H           7.2911    7.5798    0.9492 H         1 UNL    0.0586
     59 H           7.6692    6.0059    1.7111 H         1 UNL    0.0586
     60 H           9.2392    7.7422    2.3604 H         1 UNL    0.0652
     61 H          10.8579    8.8346    3.8725 H         1 UNL    0.0639
     62 H           7.7564    9.4125    6.8139 H         1 UNL    0.0655
     63 H           2.4614   -3.6467    1.7879 H         1 UNL    0.0280
     64 H           3.5747   -2.6519    0.8417 H         1 UNL    0.0280
     65 H           1.8579   -2.7503    0.3916 H         1 UNL    0.0280
@<TRIPOS>BOND
     1    1    2 ar
     2    1    6 ar
     3    1   36 1
     4    2    3 ar
     5    2   37 1
     6    3    4 ar
     7    3   35 1
     8    4    5 ar
     9    4    7 1
    10    5    6 ar
    11    5   38 1
    12    6   39 1
    13    7    8 1
    14    7   15 1
    15    7   40 1
    16    8    9 ar
    17    8   13 ar
    18    9   10 ar
    19    9   14 1
    20   10   11 ar
    21   10   41 1
    22   11   12 ar
    23   11   42 1
    24   12   13 ar
    25   12   43 1
    26   14   44 1
    27   14   45 1
    28   14   46 1
    29   15   16 am
    30   15   47 1
    31   16   17 2
    32   16   18 am
    33   18   19 1
    34   18   23 1
    35   19   20 1
    36   19   48 1
    37   19   49 1
    38   20   21 1
    39   20   50 1
    40   20   51 1
    41   21   22 1
    42   21   24 1
    43   22   23 1
    44   22   52 1
    45   22   53 1
    46   23   54 1
    47   23   55 1
    48   24   25 1
    49   24   56 1
    50   24   57 1
    51   25   26 1
    52   25   58 1
    53   25   59 1
    54   26   27 1
    55   27   28 ar
    56   27   32 ar
    57   28   29 ar
    58   28   60 1
    59   29   30 ar
    60   29   61 1
    61   30   31 ar
    62   30   34 1
    63   31   32 ar
    64   31   62 1
    65   32   33 1
    66   35   63 1
    67   35   64 1
    68   35   65 1
@<TRIPOS>SUBSTRUCTURE
     1 UNL     1 RESIDUE           4 A     UNL     0 ROOT
@<TRIPOS>MOLECULE
oleObject42.pdb
68 71 1 0 0
SMALL
NO_CHARGES


@<TRIPOS>ATOM
      1 C           0.1719   -6.3783   -1.8335 C.ar      1 UNL   -0.0435
      2 C          -0.3160   -5.2570   -2.5200 C.ar      1 UNL   -0.0559
      3 C          -0.0597   -3.9720   -2.0057 C.ar      1 UNL   -0.0272
      4 C           0.6864   -3.8628   -0.8051 C.ar      1 UNL    0.0699
      5 N           1.1514   -4.9537   -0.1525 N.ar      1 UNL   -0.2586
      6 C           0.9016   -6.1782   -0.6525 C.ar      1 UNL    0.0272
      7 C           1.0116   -2.4965   -0.1776 C.3       1 UNL    0.1101
      8 C           1.1947   -2.5570    1.3514 C.ar      1 UNL    0.0699
      9 C           0.0824   -2.6665    2.2237 C.ar      1 UNL   -0.0272
     10 C           0.3194   -2.7060    3.6107 C.ar      1 UNL   -0.0559
     11 C           1.6384   -2.6348    4.0813 C.ar      1 UNL   -0.0435
     12 C           2.6795   -2.5243    3.1481 C.ar      1 UNL    0.0272
     13 N           2.4628   -2.4844    1.8203 N.ar      1 UNL   -0.2586
     14 C          -1.3507   -2.7428    1.7084 C.3       1 UNL   -0.0379
     15 N           2.0976   -1.7753   -0.8977 N.am      1 UNL   -0.2902
     16 C           1.9895   -0.4420   -1.2952 C.2       1 UNL    0.2180
     17 O           2.6393   -0.0275   -2.2410 O.2       1 UNL   -0.2772
     18 C           1.3067    0.5357   -0.3076 C.3       1 UNL    0.0385
     19 C          -0.0834    0.9788   -0.8241 C.3       1 UNL   -0.0289
     20 C           0.0195    1.9976   -1.9793 C.3       1 UNL   -0.0010
     21 N           0.8348    3.1703   -1.5956 N.4       1 UNL   -0.3010
     22 C           2.1963    2.8280   -1.1279 C.3       1 UNL   -0.0010
     23 C           2.1780    1.7793    0.0102 C.3       1 UNL   -0.0289
     24 C           0.7958    4.2774   -2.5767 C.3       1 UNL    0.0222
     25 C           1.4547    3.9396   -3.9328 C.3       1 UNL    0.0661
     26 O           1.3074    5.0821   -4.7905 O.3       1 UNL   -0.3432
     27 C           1.7853    5.0146   -6.0761 C.ar      1 UNL    0.0937
     28 C           3.0821    5.4823   -6.3477 C.ar      1 UNL   -0.0288
     29 C           3.5907    5.4254   -7.6559 C.ar      1 UNL   -0.0408
     30 C           2.7995    4.9031   -8.6927 C.ar      1 UNL    0.0422
     31 C           1.5005    4.4395   -8.4253 C.ar      1 UNL   -0.0221
     32 C           0.9900    4.4953   -7.1174 C.ar      1 UNL    0.0723
     33 CL         -0.6364    3.9149   -6.8108 Cl        1 UNL   -0.0814
     34 CL          3.4330    4.8324  -10.3232 Cl        1 UNL   -0.0843
     35 C           3.2539   -2.5871   -1.3276 C.3       1 UNL    0.0038
     36 C          -0.5859   -2.7508   -2.7520 C.3       1 UNL   -0.0379
     37 H          -0.0101   -7.3811   -2.2086 H         1 UNL    0.0639
     38 H          -0.8827   -5.3860   -3.4379 H         1 UNL    0.0627
     39 H           1.2991   -7.0219   -0.0897 H         1 UNL    0.0840
     40 H           0.1129   -1.8934   -0.3305 H         1 UNL    0.0643
     41 H          -0.5044   -2.7915    4.3137 H         1 UNL    0.0627
     42 H           1.8502   -2.6645    5.1460 H         1 UNL    0.0639
     43 H           3.7180   -2.4661    3.4715 H         1 UNL    0.0840
     44 H          -1.6313   -1.8218    1.1826 H         1 UNL    0.0280
     45 H          -2.0671   -2.8826    2.5275 H         1 UNL    0.0280
     46 H          -1.4804   -3.5844    1.0169 H         1 UNL    0.0280
     47 H           1.1604    0.0188    0.6463 H         1 UNL    0.0402
     48 H          -0.6406    1.4397    0.0018 H         1 UNL    0.0288
     49 H          -0.6662    0.1090   -1.1496 H         1 UNL    0.0288
     50 H          -0.9926    2.3213   -2.2543 H         1 UNL    0.0431
     51 H           0.4604    1.5010   -2.8531 H         1 UNL    0.0431
     52 H           2.7010    3.7316   -0.7627 H         1 UNL    0.0431
     53 H           2.7910    2.4385   -1.9625 H         1 UNL    0.0431
     54 H           1.7805    2.2613    0.9128 H         1 UNL    0.0288
     55 H           3.2033    1.4687    0.2489 H         1 UNL    0.0288
     56 H           1.2997    5.1554   -2.1528 H         1 UNL    0.0455
     57 H          -0.2486    4.5618   -2.7586 H         1 UNL    0.0455
     58 H           0.9646    3.0677   -4.3831 H         1 UNL    0.0586
     59 H           2.5182    3.7108   -3.7920 H         1 UNL    0.0586
     60 H           3.6909    5.8873   -5.5445 H         1 UNL    0.0652
     61 H           4.5941    5.7859   -7.8643 H         1 UNL    0.0639
     62 H           0.8904    4.0389   -9.2299 H         1 UNL    0.0655
     63 H           3.4332   -3.4077   -0.6218 H         1 UNL    0.0433
     64 H           4.1558   -1.9633   -1.3675 H         1 UNL    0.0433
     65 H           3.0622   -3.0038   -2.3243 H         1 UNL    0.0433
     66 H          -1.1029   -3.0350   -3.6770 H         1 UNL    0.0280
     67 H           0.2301   -2.0737   -3.0322 H         1 UNL    0.0280
     68 H          -1.3011   -2.1901   -2.1381 H         1 UNL    0.0280
@<TRIPOS>BOND
     1    1    2 ar
     2    1    6 ar
     3    1   37 1
     4    2    3 ar
     5    2   38 1
     6    3    4 ar
     7    3   36 1
     8    4    5 ar
     9    4    7 1
    10    5    6 ar
    11    6   39 1
    12    7    8 1
    13    7   15 1
    14    7   40 1
    15    8    9 ar
    16    8   13 ar
    17    9   10 ar
    18    9   14 1
    19   10   11 ar
    20   10   41 1
    21   11   12 ar
    22   11   42 1
    23   12   13 ar
    24   12   43 1
    25   14   44 1
    26   14   45 1
    27   14   46 1
    28   15   16 am
    29   15   35 1
    30   16   17 2
    31   16   18 1
    32   18   19 1
    33   18   23 1
    34   18   47 1
    35   19   20 1
    36   19   48 1
    37   19   49 1
    38   20   21 1
    39   20   50 1
    40   20   51 1
    41   21   22 1
    42   21   24 1
    43   22   23 1
    44   22   52 1
    45   22   53 1
    46   23   54 1
    47   23   55 1
    48   24   25 1
    49   24   56 1
    50   24   57 1
    51   25   26 1
    52   25   58 1
    53   25   59 1
    54   26   27 1
    55   27   28 ar
    56   27   32 ar
    57   28   29 ar
    58   28   60 1
    59   29   30 ar
    60   29   61 1
    61   30   31 ar
    62   30   34 1
    63   31   32 ar
    64   31   62 1
    65   32   33 1
    66   35   63 1
    67   35   64 1
    68   35   65 1
    69   36   66 1
    70   36   67 1
    71   36   68 1
@<TRIPOS>SUBSTRUCTURE
     1 UNL     1 RESIDUE           4 A     UNL     0 ROOT
@<TRIPOS>MOLECULE
oleObject52.pdb
71 74 1 0 0
SMALL
NO_CHARGES


@<TRIPOS>ATOM
      1 C          -6.4236   -3.3117    3.0505 C.ar      1 UNL   -0.0596
      2 C          -6.8144   -3.3874    1.7052 C.ar      1 UNL   -0.0314
      3 C          -6.1379   -2.6341    0.7221 C.ar      1 UNL    0.0800
      4 C          -5.0576   -1.8003    1.0936 C.ar      1 UNL    0.0089
      5 C          -4.6801   -1.7303    2.4519 C.ar      1 UNL   -0.0541
      6 C          -5.3575   -2.4821    3.4236 C.ar      1 UNL   -0.0617
      7 C          -4.3293   -0.9794    0.0184 C.3       1 UNL    0.0953
      8 C          -5.1410    0.2469   -0.4347 C.ar      1 UNL    0.0684
      9 C          -5.1772    0.6619   -1.7897 C.ar      1 UNL   -0.0272
     10 C          -5.9533    1.7871   -2.1255 C.ar      1 UNL   -0.0559
     11 C          -6.6616    2.4551   -1.1164 C.ar      1 UNL   -0.0435
     12 C          -6.5727    1.9740    0.1982 C.ar      1 UNL    0.0272
     13 N          -5.8334    0.8991    0.5295 N.ar      1 UNL   -0.2587
     14 C          -4.4209   -0.0762   -2.8876 C.3       1 UNL   -0.0379
     15 N          -2.9007   -0.6903    0.3319 N.am      1 UNL   -0.2917
     16 C          -1.9116   -1.6394    0.0522 C.2       1 UNL    0.2180
     17 O          -2.2176   -2.7948   -0.1914 O.2       1 UNL   -0.2772
     18 C          -0.4897   -1.1124   -0.2692 C.3       1 UNL    0.0385
     19 C          -0.4422   -0.3532   -1.6173 C.3       1 UNL   -0.0289
     20 C          -0.5227   -1.3105   -2.8260 C.3       1 UNL   -0.0010
     21 N           0.5540   -2.3272   -2.7872 N.4       1 UNL   -0.3010
     22 C           0.5540   -3.1170   -1.5362 C.3       1 UNL   -0.0010
     23 C           0.5886   -2.2284   -0.2684 C.3       1 UNL   -0.0289
     24 C           0.6059   -3.2047   -3.9777 C.3       1 UNL    0.0222
     25 C           0.8800   -2.4433   -5.2911 C.3       1 UNL    0.0661
     26 O           1.0704   -3.4181   -6.3320 O.3       1 UNL   -0.3432
     27 C           1.3422   -3.0904   -7.6462 C.ar      1 UNL    0.0937
     28 C           1.4743   -1.7519   -8.0719 C.ar      1 UNL   -0.0289
     29 C           1.7513   -1.4620   -9.4183 C.ar      1 UNL   -0.0417
     30 C           1.8989   -2.5032  -10.3509 C.ar      1 UNL    0.0537
     31 C           1.7685   -3.8378   -9.9310 C.ar      1 UNL   -0.0230
     32 C           1.4916   -4.1307   -8.5852 C.ar      1 UNL    0.0721
     33 CL          1.3358   -5.8087   -8.1001 Cl        1 UNL   -0.0814
     34 C           2.1816   -2.2047  -11.7254 C.1       1 UNL    0.0992
     35 N           2.4080   -1.9536  -12.8313 N.1       1 UNL   -0.1924
     36 C          -2.6032    0.6081    0.9750 C.3       1 UNL    0.0037
     37 O          -6.5104   -2.6851   -0.6104 O.3       1 UNL   -0.3490
     38 C          -7.6150   -3.4628   -1.1018 C.3       1 UNL    0.0422
     39 H          -6.9484   -3.8938    3.8025 H         1 UNL    0.0624
     40 H          -7.6442   -4.0338    1.4402 H         1 UNL    0.0651
     41 H          -3.8605   -1.0929    2.7654 H         1 UNL    0.0627
     42 H          -5.0557   -2.4204    4.4652 H         1 UNL    0.0623
     43 H          -4.2965   -1.6443   -0.8518 H         1 UNL    0.0627
     44 H          -6.0115    2.1358   -3.1526 H         1 UNL    0.0627
     45 H          -7.2703    3.3241   -1.3478 H         1 UNL    0.0639
     46 H          -7.1109    2.4611    1.0103 H         1 UNL    0.0840
     47 H          -3.3678   -0.2126   -2.6200 H         1 UNL    0.0280
     48 H          -4.4485    0.4713   -3.8378 H         1 UNL    0.0280
     49 H          -4.8570   -1.0675   -3.0643 H         1 UNL    0.0280
     50 H          -0.2046   -0.4139    0.5245 H         1 UNL    0.0402
     51 H           0.4994    0.2078   -1.6775 H         1 UNL    0.0288
     52 H          -1.2476    0.3881   -1.6737 H         1 UNL    0.0288
     53 H          -0.4510   -0.7061   -3.7376 H         1 UNL    0.0431
     54 H          -1.5015   -1.8084   -2.8299 H         1 UNL    0.0431
     55 H           1.4277   -3.7811   -1.5173 H         1 UNL    0.0431
     56 H          -0.3375   -3.7560   -1.5084 H         1 UNL    0.0431
     57 H           1.5785   -1.7579   -0.2076 H         1 UNL    0.0288
     58 H           0.4858   -2.8529    0.6283 H         1 UNL    0.0288
     59 H          -0.3369   -3.7590   -4.0747 H         1 UNL    0.0455
     60 H           1.4091   -3.9416   -3.8468 H         1 UNL    0.0455
     61 H           1.7825   -1.8296   -5.1751 H         1 UNL    0.0586
     62 H           0.0311   -1.7942   -5.5374 H         1 UNL    0.0586
     63 H           1.3655   -0.9300   -7.3716 H         1 UNL    0.0651
     64 H           1.8512   -0.4270   -9.7352 H         1 UNL    0.0638
     65 H           1.8813   -4.6485  -10.6461 H         1 UNL    0.0653
     66 H          -3.4644    0.9615    1.5534 H         1 UNL    0.0433
     67 H          -2.3555    1.3561    0.2119 H         1 UNL    0.0433
     68 H          -1.7652    0.5060    1.6742 H         1 UNL    0.0433
     69 H          -7.7092   -3.3288   -2.1864 H         1 UNL    0.0535
     70 H          -8.5514   -3.1402   -0.6292 H         1 UNL    0.0535
     71 H          -7.4556   -4.5288   -0.8963 H         1 UNL    0.0535
@<TRIPOS>BOND
     1    1    2 ar
     2    1    6 ar
     3    1   39 1
     4    2    3 ar
     5    2   40 1
     6    3    4 ar
     7    3   37 1
     8    4    5 ar
     9    4    7 1
    10    5    6 ar
    11    5   41 1
    12    6   42 1
    13    7    8 1
    14    7   15 1
    15    7   43 1
    16    8    9 ar
    17    8   13 ar
    18    9   10 ar
    19    9   14 1
    20   10   11 ar
    21   10   44 1
    22   11   12 ar
    23   11   45 1
    24   12   13 ar
    25   12   46 1
    26   14   47 1
    27   14   48 1
    28   14   49 1
    29   15   16 am
    30   15   36 1
    31   16   17 2
    32   16   18 1
    33   18   19 1
    34   18   23 1
    35   18   50 1
    36   19   20 1
    37   19   51 1
    38   19   52 1
    39   20   21 1
    40   20   53 1
    41   20   54 1
    42   21   22 1
    43   21   24 1
    44   22   23 1
    45   22   55 1
    46   22   56 1
    47   23   57 1
    48   23   58 1
    49   24   25 1
    50   24   59 1
    51   24   60 1
    52   25   26 1
    53   25   61 1
    54   25   62 1
    55   26   27 1
    56   27   28 ar
    57   27   32 ar
    58   28   29 ar
    59   28   63 1
    60   29   30 ar
    61   29   64 1
    62   30   31 ar
    63   30   34 1
    64   31   32 ar
    65   31   65 1
    66   32   33 1
    67   34   35 3
    68   36   66 1
    69   36   67 1
    70   36   68 1
    71   37   38 1
    72   38   69 1
    73   38   70 1
    74   38   71 1
@<TRIPOS>SUBSTRUCTURE
     1 UNL     1 RESIDUE           4 A     UNL     0 ROOT
@<TRIPOS>MOLECULE
oleObject70.pdb
62 65 1 0 0
SMALL
NO_CHARGES


@<TRIPOS>ATOM
      1 C           2.5064    0.5302    5.2431 C.ar      1 UNL   -0.0620
      2 C           1.2467    0.6067    4.6321 C.ar      1 UNL   -0.0590
      3 C           1.1216    1.0066    3.2874 C.ar      1 UNL   -0.0456
      4 C           2.2827    1.3261    2.5381 C.ar      1 UNL   -0.0187
      5 C           3.5423    1.2585    3.1726 C.ar      1 UNL   -0.0565
      6 C           3.6550    0.8613    4.5131 C.ar      1 UNL   -0.0619
      7 C           2.1853    1.7667    1.0666 C.3       1 UNL    0.0909
      8 C           1.9462    3.2751    0.8804 C.ar      1 UNL    0.0681
      9 C           1.4259    3.8055   -0.3275 C.ar      1 UNL   -0.0272
     10 C           1.2397    5.1977   -0.4221 C.ar      1 UNL   -0.0559
     11 C           1.5681    6.0079    0.6742 C.ar      1 UNL   -0.0435
     12 C           2.0704    5.3984    1.8332 C.ar      1 UNL    0.0272
     13 N           2.2516    4.0686    1.9336 N.ar      1 UNL   -0.2587
     14 C           1.0701    2.9236   -1.5193 C.3       1 UNL   -0.0379
     15 N           3.2643    1.2024    0.2260 N.am      1 UNL   -0.2987
     16 C           4.4703    1.8126   -0.0961 C.2       1 UNL    0.2437
     17 O           4.7842    2.9126    0.3252 O.2       1 UNL   -0.2719
     18 C           5.3945    1.0293   -0.9976 C.ar      1 UNL    0.0371
     19 C           5.0671   -0.2613   -1.4710 C.ar      1 UNL   -0.0494
     20 C           5.9500   -0.9613   -2.3098 C.ar      1 UNL   -0.0570
     21 C           7.1745   -0.3886   -2.6915 C.ar      1 UNL   -0.0341
     22 C           7.5069    0.8948   -2.2274 C.ar      1 UNL   -0.0570
     23 C           6.6258    1.5956   -1.3880 C.ar      1 UNL   -0.0494
     24 C           8.1238   -1.1458   -3.6048 C.3       1 UNL    0.0208
     25 N           7.7781   -0.9473   -5.0180 N.4       1 UNL   -0.3086
     26 C           8.6692   -1.6500   -5.9506 C.3       1 UNL    0.0223
     27 C           8.2707   -1.4001   -7.3989 C.ar      1 UNL   -0.0154
     28 C           7.5272   -2.3773   -8.0881 C.ar      1 UNL   -0.0548
     29 C           7.1425   -2.1705   -9.4229 C.ar      1 UNL   -0.0431
     30 C           7.4983   -0.9815  -10.0781 C.ar      1 UNL    0.0421
     31 C           8.2365    0.0007   -9.3995 C.ar      1 UNL   -0.0245
     32 C           8.6222   -0.2049   -8.0639 C.ar      1 UNL    0.0465
     33 CL          9.5360    1.0560   -7.2559 Cl        1 UNL   -0.0839
     34 CL          7.0185   -0.7220  -11.7417 Cl        1 UNL   -0.0843
     35 C          -0.2767    1.0984    2.6843 C.3       1 UNL   -0.0394
     36 H           2.5906    0.2250    6.2821 H         1 UNL    0.0623
     37 H           0.3618    0.3591    5.2117 H         1 UNL    0.0626
     38 H           4.4448    1.5246    2.6326 H         1 UNL    0.0627
     39 H           4.6320    0.8157    4.9855 H         1 UNL    0.0623
     40 H           1.2855    1.2840    0.6737 H         1 UNL    0.0624
     41 H           0.8488    5.6461   -1.3310 H         1 UNL    0.0627
     42 H           1.4367    7.0848    0.6278 H         1 UNL    0.0639
     43 H           2.3380    5.9908    2.7071 H         1 UNL    0.0840
     44 H           1.9630    2.4396   -1.9332 H         1 UNL    0.0280
     45 H           0.6108    3.5055   -2.3281 H         1 UNL    0.0280
     46 H           0.3557    2.1409   -1.2369 H         1 UNL    0.0280
     47 H           3.1050    0.2818   -0.1589 H         1 UNL    0.1508
     48 H           4.1308   -0.7370   -1.1979 H         1 UNL    0.0631
     49 H           5.6799   -1.9511   -2.6676 H         1 UNL    0.0626
     50 H           8.4482    1.3525   -2.5190 H         1 UNL    0.0626
     51 H           6.9053    2.5872   -1.0428 H         1 UNL    0.0631
     52 H           8.0834   -2.2150   -3.3590 H         1 UNL    0.0479
     53 H           9.1503   -0.8021   -3.4222 H         1 UNL    0.0479
     54 H           7.7960    0.0505   -5.2282 H         1 UNL    0.1229
     55 H           8.6358   -2.7281   -5.7468 H         1 UNL    0.0480
     56 H           9.7057   -1.3231   -5.7969 H         1 UNL    0.0480
     57 H           7.2436   -3.2986   -7.5868 H         1 UNL    0.0627
     58 H           6.5686   -2.9300   -9.9463 H         1 UNL    0.0639
     59 H           8.5081    0.9217   -9.9074 H         1 UNL    0.0654
     60 H          -1.0562    0.9620    3.4444 H         1 UNL    0.0280
     61 H          -0.4270    0.3272    1.9187 H         1 UNL    0.0280
     62 H          -0.4458    2.0785    2.2209 H         1 UNL    0.0280
@<TRIPOS>BOND
     1    1    2 ar
     2    1    6 ar
     3    1   36 1
     4    2    3 ar
     5    2   37 1
     6    3    4 ar
     7    3   35 1
     8    4    5 ar
     9    4    7 1
    10    5    6 ar
    11    5   38 1
    12    6   39 1
    13    7    8 1
    14    7   15 1
    15    7   40 1
    16    8    9 ar
    17    8   13 ar
    18    9   10 ar
    19    9   14 1
    20   10   11 ar
    21   10   41 1
    22   11   12 ar
    23   11   42 1
    24   12   13 ar
    25   12   43 1
    26   14   44 1
    27   14   45 1
    28   14   46 1
    29   15   16 am
    30   15   47 1
    31   16   17 2
    32   16   18 1
    33   18   19 ar
    34   18   23 ar
    35   19   20 ar
    36   19   48 1
    37   20   21 ar
    38   20   49 1
    39   21   22 ar
    40   21   24 1
    41   22   23 ar
    42   22   50 1
    43   23   51 1
    44   24   25 1
    45   24   52 1
    46   24   53 1
    47   25   26 1
    48   25   54 1
    49   26   27 1
    50   26   55 1
    51   26   56 1
    52   27   28 ar
    53   27   32 ar
    54   28   29 ar
    55   28   57 1
    56   29   30 ar
    57   29   58 1
    58   30   31 ar
    59   30   34 1
    60   31   32 ar
    61   31   59 1
    62   32   33 1
    63   35   60 1
    64   35   61 1
    65   35   62 1
@<TRIPOS>SUBSTRUCTURE
     1 UNL     1 RESIDUE           4 A     UNL     0 ROOT
@<TRIPOS>MOLECULE
oleObject79.pdb
102 108 1 0 0
SMALL
NO_CHARGES


@<TRIPOS>ATOM
      1 C           1.9416    3.2294    4.4153 C.ar      1 UNL   -0.0620
      2 C           2.8434    4.0613    3.7373 C.ar      1 UNL   -0.0590
      3 C           3.4634    3.6347    2.5465 C.ar      1 UNL   -0.0456
      4 C           3.1710    2.3474    2.0227 C.ar      1 UNL   -0.0185
      5 C           2.2598    1.5249    2.7202 C.ar      1 UNL   -0.0565
      6 C           1.6499    1.9590    3.9057 C.ar      1 UNL   -0.0619
      7 C           3.7761    1.8466    0.6956 C.3       1 UNL    0.0931
      8 C           4.8528    0.7548    0.8401 C.ar      1 UNL    0.0683
      9 C           5.8147    0.5277   -0.1774 C.ar      1 UNL   -0.0272
     10 C           6.7715   -0.4862    0.0179 C.ar      1 UNL   -0.0559
     11 C           6.7450   -1.2325    1.2046 C.ar      1 UNL   -0.0435
     12 C           5.7604   -0.9401    2.1594 C.ar      1 UNL    0.0272
     13 N           4.8407    0.0263    1.9809 N.ar      1 UNL   -0.2587
     14 C           5.8440    1.3406   -1.4677 C.3       1 UNL   -0.0379
     15 N           2.7135    1.5413   -0.3029 N.am      1 UNL   -0.2918
     16 C           2.1969    2.5518   -1.1169 C.2       1 UNL    0.2179
     17 O           2.8874    3.5134   -1.4112 O.2       1 UNL   -0.2772
     18 C           0.6521    2.6055   -1.2618 C.3       1 UNL    0.0361
     19 C           0.1611    3.7815   -2.1540 C.3       1 UNL   -0.0412
     20 C           0.2680    5.1734   -1.4718 C.3       1 UNL   -0.0453
     21 C          -0.3704    5.2453   -0.0525 C.3       1 UNL   -0.0139
     22 C           0.0998    6.5585    0.6324 C.3       1 UNL    0.0171
     23 N          -0.5549    6.7370    1.9443 N.pl3     1 UNL   -0.3290
     24 C          -2.0255    6.8412    1.8726 C.3       1 UNL    0.0115
     25 C          -2.6266    5.5941    1.1823 C.3       1 UNL   -0.0368
     26 C          -1.9281    5.2874   -0.1663 C.3       1 UNL   -0.0446
     27 C           0.1803    7.0148    3.1015 C.ar      1 UNL    0.0476
     28 C           1.1972    7.9880    3.0471 C.ar      1 UNL   -0.0375
     29 C           1.9801    8.2785    4.1749 C.ar      1 UNL   -0.0388
     30 C           1.7801    7.5866    5.3793 C.ar      1 UNL    0.0318
     31 C           0.7549    6.6255    5.4475 C.ar      1 UNL   -0.0202
     32 C          -0.0357    6.3337    4.3230 C.ar      1 UNL    0.0636
     33 CL         -1.2297    5.0588    4.4967 Cl        1 UNL   -0.0822
     34 N           2.5768    7.9017    6.4782 N.pl3     1 UNL   -0.3149
     35 C           2.9543    7.1526    7.5914 C.ar      1 UNL    0.0302
     36 C           2.9837    5.7459    7.5744 C.ar      1 UNL   -0.0402
     37 C           3.3953    5.0261    8.7074 C.ar      1 UNL   -0.0525
     38 C           3.7990    5.6873    9.8939 C.ar      1 UNL   -0.0182
     39 C           3.7809    7.1042    9.8871 C.ar      1 UNL   -0.0525
     40 C           3.3738    7.8233    8.7515 C.ar      1 UNL   -0.0402
     41 C           4.2388    4.9190   11.1064 C.ar      1 UNL   -0.0177
     42 C           4.8489    3.6441   10.9884 C.ar      1 UNL   -0.0439
     43 C           5.2656    2.9070   12.1184 C.ar      1 UNL    0.0111
     44 C           5.0640    3.4624   13.3989 C.ar      1 UNL   -0.0518
     45 C           4.4643    4.7218   13.5420 C.ar      1 UNL   -0.0609
     46 C           4.0574    5.4422   12.4098 C.ar      1 UNL   -0.0543
     47 C           5.8689    1.6538   11.9715 C.2       1 UNL    0.1014
     48 N           5.7330    0.7217   12.8415 N.3       1 UNL   -0.2892
     49 N           6.6283    1.3775   10.9026 N.3       1 UNL   -0.2870
     50 C           0.1232    4.0344    0.7992 C.3       1 UNL   -0.0453
     51 C          -0.0734    2.6685    0.1075 C.3       1 UNL   -0.0412
     52 C           2.2536    0.1403   -0.4219 C.3       1 UNL    0.0037
     53 C           4.4167    4.6004    1.8506 C.3       1 UNL   -0.0394
     54 H           1.4667    3.5691    5.3306 H         1 UNL    0.0623
     55 H           3.0567    5.0480    4.1382 H         1 UNL    0.0626
     56 H           2.0182    0.5376    2.3410 H         1 UNL    0.0627
     57 H           0.9500    1.3117    4.4259 H         1 UNL    0.0623
     58 H           4.3325    2.6878    0.2792 H         1 UNL    0.0626
     59 H           7.5250   -0.6926   -0.7369 H         1 UNL    0.0627
     60 H           7.4720   -2.0195    1.3819 H         1 UNL    0.0639
     61 H           5.7055   -1.4945    3.0955 H         1 UNL    0.0840
     62 H           4.9127    1.2199   -2.0341 H         1 UNL    0.0280
     63 H           6.6661    1.0281   -2.1235 H         1 UNL    0.0280
     64 H           5.9810    2.4093   -1.2617 H         1 UNL    0.0280
     65 H           0.3537    1.6769   -1.7634 H         1 UNL    0.0401
     66 H          -0.8876    3.6028   -2.4234 H         1 UNL    0.0275
     67 H           0.7199    3.7904   -3.0987 H         1 UNL    0.0275
     68 H          -0.1865    5.9293   -2.1252 H         1 UNL    0.0273
     69 H           1.3255    5.4532   -1.3990 H         1 UNL    0.0273
     70 H          -0.1395    7.4144   -0.0121 H         1 UNL    0.0474
     71 H           1.1908    6.5296    0.7525 H         1 UNL    0.0474
     72 H          -2.2931    7.7333    1.2920 H         1 UNL    0.0468
     73 H          -2.4613    6.9583    2.8724 H         1 UNL    0.0468
     74 H          -3.6996    5.7499    1.0148 H         1 UNL    0.0283
     75 H          -2.5404    4.7274    1.8482 H         1 UNL    0.0283
     76 H          -2.2114    6.0746   -0.8773 H         1 UNL    0.0273
     77 H          -2.3224    4.3512   -0.5780 H         1 UNL    0.0273
     78 H           1.3797    8.5318    2.1248 H         1 UNL    0.0644
     79 H           2.7571    9.0347    4.1063 H         1 UNL    0.0643
     80 H           0.5620    6.0997    6.3774 H         1 UNL    0.0659
     81 H           2.9671    8.8350    6.4551 H         1 UNL    0.1528
     82 H           2.7065    5.2011    6.6786 H         1 UNL    0.0643
     83 H           3.3874    3.9416    8.6616 H         1 UNL    0.0630
     84 H           4.1054    7.6578   10.7625 H         1 UNL    0.0630
     85 H           3.3791    8.9094    8.7766 H         1 UNL    0.0643
     86 H           5.0075    3.2255    9.9994 H         1 UNL    0.0637
     87 H           5.3822    2.9275   14.2895 H         1 UNL    0.0630
     88 H           4.3135    5.1404   14.5331 H         1 UNL    0.0623
     89 H           3.5801    6.4070   12.5505 H         1 UNL    0.0629
     90 H           5.1291    1.0277   13.6074 H         1 UNL    0.1889
     91 H           7.1143    2.1293   10.4171 H         1 UNL    0.1258
     92 H           7.2559    0.5758   10.9276 H         1 UNL    0.1258
     93 H          -0.3680    4.0111    1.7783 H         1 UNL    0.0273
     94 H           1.1913    4.1648    1.0075 H         1 UNL    0.0273
     95 H          -1.1437    2.4813   -0.0401 H         1 UNL    0.0275
     96 H           0.2737    1.8716    0.7733 H         1 UNL    0.0275
     97 H           1.1618    0.0818   -0.3509 H         1 UNL    0.0433
     98 H           2.6737   -0.4894    0.3706 H         1 UNL    0.0433
     99 H           2.5682   -0.2625   -1.3926 H         1 UNL    0.0433
    100 H           4.5708    5.5146    2.4373 H         1 UNL    0.0280
    101 H           4.0230    4.9039    0.8724 H         1 UNL    0.0280
    102 H           5.4020    4.1425    1.6977 H         1 UNL    0.0280
@<TRIPOS>BOND
     1    1    2 ar
     2    1    6 ar
     3    1   54 1
     4    2    3 ar
     5    2   55 1
     6    3    4 ar
     7    3   53 1
     8    4    5 ar
     9    4    7 1
    10    5    6 ar
    11    5   56 1
    12    6   57 1
    13    7    8 1
    14    7   15 1
    15    7   58 1
    16    8    9 ar
    17    8   13 ar
    18    9   10 ar
    19    9   14 1
    20   10   11 ar
    21   10   59 1
    22   11   12 ar
    23   11   60 1
    24   12   13 ar
    25   12   61 1
    26   14   62 1
    27   14   63 1
    28   14   64 1
    29   15   16 am
    30   15   52 1
    31   16   17 2
    32   16   18 1
    33   18   19 1
    34   18   51 1
    35   18   65 1
    36   19   20 1
    37   19   66 1
    38   19   67 1
    39   20   21 1
    40   20   68 1
    41   20   69 1
    42   21   22 1
    43   21   26 1
    44   21   50 1
    45   22   23 1
    46   22   70 1
    47   22   71 1
    48   23   24 1
    49   23   27 1
    50   24   25 1
    51   24   72 1
    52   24   73 1
    53   25   26 1
    54   25   74 1
    55   25   75 1
    56   26   76 1
    57   26   77 1
    58   27   28 ar
    59   27   32 ar
    60   28   29 ar
    61   28   78 1
    62   29   30 ar
    63   29   79 1
    64   30   31 ar
    65   30   34 1
    66   31   32 ar
    67   31   80 1
    68   32   33 1
    69   34   35 1
    70   34   81 1
    71   35   36 ar
    72   35   40 ar
    73   36   37 ar
    74   36   82 1
    75   37   38 ar
    76   37   83 1
    77   38   39 ar
    78   38   41 1
    79   39   40 ar
    80   39   84 1
    81   40   85 1
    82   41   42 ar
    83   41   46 ar
    84   42   43 ar
    85   42   86 1
    86   43   44 ar
    87   43   47 1
    88   44   45 ar
    89   44   87 1
    90   45   46 ar
    91   45   88 1
    92   46   89 1
    93   47   48 1
    94   47   49 1
    95   48   90 1
    96   49   91 1
    97   49   92 1
    98   50   51 1
    99   50   93 1
   100   50   94 1
   101   51   95 1
   102   51   96 1
   103   52   97 1
   104   52   98 1
   105   52   99 1
   106   53  100 1
   107   53  101 1
   108   53  102 1
@<TRIPOS>SUBSTRUCTURE
     1 UNL     1 RESIDUE           4 A     UNL     0 ROOT
@<TRIPOS>MOLECULE
oleObject80.pdb
94 99 1 0 0
SMALL
NO_CHARGES


@<TRIPOS>ATOM
      1 C           5.4386   -1.8669    5.1264 C.ar      1 UNL   -0.0620
      2 C           4.1370   -1.3642    5.2636 C.ar      1 UNL   -0.0590
      3 C           3.5334   -0.6341    4.2213 C.ar      1 UNL   -0.0456
      4 C           4.2489   -0.4026    3.0189 C.ar      1 UNL   -0.0185
      5 C           5.5587   -0.9176    2.8959 C.ar      1 UNL   -0.0565
      6 C           6.1492   -1.6440    3.9403 C.ar      1 UNL   -0.0619
      7 C           3.6181    0.3992    1.8663 C.3       1 UNL    0.0931
      8 C           4.6440    1.1396    0.9898 C.ar      1 UNL    0.0683
      9 C           5.1847    2.3919    1.3772 C.ar      1 UNL   -0.0272
     10 C           6.1139    3.0145    0.5227 C.ar      1 UNL   -0.0559
     11 C           6.4764    2.3786   -0.6733 C.ar      1 UNL   -0.0435
     12 C           5.8997    1.1364   -0.9749 C.ar      1 UNL    0.0272
     13 N           5.0104    0.5331   -0.1644 N.ar      1 UNL   -0.2587
     14 C           4.7953    3.0788    2.6816 C.3       1 UNL   -0.0379
     15 N           2.6047   -0.3617    1.0798 N.am      1 UNL   -0.2918
     16 C           1.4164    0.2530    0.6691 C.2       1 UNL    0.2180
     17 O           1.0147    1.2636    1.2227 O.2       1 UNL   -0.2772
     18 C           0.8337   -0.1794   -0.6998 C.3       1 UNL    0.0385
     19 C           1.7126    0.2990   -1.8817 C.3       1 UNL   -0.0289
     20 C           1.5858    1.8185   -2.1144 C.3       1 UNL   -0.0010
     21 N           0.1825    2.2176   -2.3548 N.4       1 UNL   -0.3010
     22 C          -0.7327    1.8117   -1.2611 C.3       1 UNL   -0.0010
     23 C          -0.6246    0.3039   -0.9193 C.3       1 UNL   -0.0289
     24 C           0.0830    3.6457   -2.7295 C.3       1 UNL    0.0222
     25 C          -1.3161    4.0527   -3.2359 C.3       1 UNL    0.0661
     26 O          -1.2313    5.4051   -3.7194 O.3       1 UNL   -0.3432
     27 C          -2.3046    6.0955   -4.2490 C.ar      1 UNL    0.0937
     28 C          -3.5802    5.5103   -4.3814 C.ar      1 UNL   -0.0284
     29 C          -4.6435    6.2483   -4.9270 C.ar      1 UNL   -0.0381
     30 C          -4.4585    7.5805   -5.3349 C.ar      1 UNL    0.0319
     31 C          -3.1782    8.1563   -5.2223 C.ar      1 UNL   -0.0194
     32 C          -2.1109    7.4225   -4.6788 C.ar      1 UNL    0.0727
     33 CL         -0.5367    8.1859   -4.5561 Cl        1 UNL   -0.0814
     34 N          -5.5370    8.2693   -5.8869 N.pl3     1 UNL   -0.3136
     35 C          -5.8095    9.6328   -5.9930 C.ar      1 UNL    0.0489
     36 C          -6.7097   10.0863   -6.9733 C.ar      1 UNL    0.0488
     37 N          -7.0411   11.3836   -7.1291 N.ar      1 UNL   -0.2543
     38 C          -6.5123   12.3194   -6.3103 C.ar      1 UNL    0.0703
     39 C          -5.6092   11.9408   -5.2831 C.ar      1 UNL   -0.0339
     40 C          -5.2604   10.5904   -5.1207 C.ar      1 UNL   -0.0371
     41 C          -6.9345   13.7458   -6.5422 C.ar      1 UNL    0.0009
     42 C          -6.7744   14.7411   -5.5430 C.ar      1 UNL   -0.0402
     43 C          -7.1664   16.0806   -5.7477 C.ar      1 UNL    0.0375
     44 C          -7.7368   16.4386   -6.9869 C.ar      1 UNL   -0.0496
     45 C          -7.9117   15.4753   -7.9901 C.ar      1 UNL   -0.0608
     46 C          -7.5183   14.1474   -7.7710 C.ar      1 UNL   -0.0528
     47 C          -6.9688   17.0881   -4.6409 C.2       1 UNL    0.2403
     48 O          -6.4692   16.7928   -3.5701 O.2       1 UNL   -0.2722
     49 N          -7.3772   18.3834   -4.8790 N.am      1 UNL   -0.3251
     50 C           2.9507   -1.7474    0.6907 C.3       1 UNL    0.0037
     51 C           2.1130   -0.1151    4.4257 C.3       1 UNL   -0.0394
     52 H           5.8937   -2.4293    5.9367 H         1 UNL    0.0623
     53 H           3.5948   -1.5450    6.1875 H         1 UNL    0.0626
     54 H           6.1289   -0.7665    1.9848 H         1 UNL    0.0627
     55 H           7.1567   -2.0345    3.8285 H         1 UNL    0.0623
     56 H           3.0634    1.1983    2.3645 H         1 UNL    0.0626
     57 H           6.5490    3.9759    0.7806 H         1 UNL    0.0627
     58 H           7.1907    2.8368   -1.3509 H         1 UNL    0.0639
     59 H           6.1563    0.6081   -1.8922 H         1 UNL    0.0840
     60 H           3.7464    3.3999    2.6586 H         1 UNL    0.0280
     61 H           5.4076    3.9699    2.8678 H         1 UNL    0.0280
     62 H           4.9278    2.4079    3.5394 H         1 UNL    0.0280
     63 H           0.8020   -1.2750   -0.7145 H         1 UNL    0.0402
     64 H           1.4014   -0.2242   -2.7951 H         1 UNL    0.0288
     65 H           2.7637    0.0381   -1.7182 H         1 UNL    0.0288
     66 H           2.2049    2.0909   -2.9789 H         1 UNL    0.0431
     67 H           1.9826    2.3522   -1.2400 H         1 UNL    0.0431
     68 H          -1.7733    2.0167   -1.5386 H         1 UNL    0.0431
     69 H          -0.5134    2.4052   -0.3649 H         1 UNL    0.0431
     70 H          -1.0587   -0.2665   -1.7507 H         1 UNL    0.0288
     71 H          -1.2344    0.0771   -0.0355 H         1 UNL    0.0288
     72 H           0.8023    3.8586   -3.5311 H         1 UNL    0.0455
     73 H           0.3500    4.2762   -1.8713 H         1 UNL    0.0455
     74 H          -2.0464    3.9916   -2.4199 H         1 UNL    0.0586
     75 H          -1.6217    3.3780   -4.0457 H         1 UNL    0.0586
     76 H          -3.7602    4.4871   -4.0683 H         1 UNL    0.0652
     77 H          -5.6209    5.7837   -5.0240 H         1 UNL    0.0644
     78 H          -2.9973    9.1671   -5.5740 H         1 UNL    0.0659
     79 H          -6.2565    7.6720   -6.2739 H         1 UNL    0.1528
     80 H          -7.1762    9.3870   -7.6659 H         1 UNL    0.0861
     81 H          -5.1711   12.6787   -4.6201 H         1 UNL    0.0646
     82 H          -4.5900   10.3003   -4.3178 H         1 UNL    0.0644
     83 H          -6.3539   14.4688   -4.5812 H         1 UNL    0.0638
     84 H          -8.0511   17.4585   -7.1851 H         1 UNL    0.0631
     85 H          -8.3526   15.7582   -8.9419 H         1 UNL    0.0623
     86 H          -7.6614   13.4266   -8.5710 H         1 UNL    0.0630
     87 H          -7.7924   18.6283   -5.7678 H         1 UNL    0.1458
     88 H          -7.2557   19.0777   -4.1527 H         1 UNL    0.1458
     89 H           3.8755   -2.0864    1.1691 H         1 UNL    0.0433
     90 H           3.0943   -1.8105   -0.3942 H         1 UNL    0.0433
     91 H           2.1391   -2.4240    0.9860 H         1 UNL    0.0433
     92 H           1.7036   -0.4235    5.3957 H         1 UNL    0.0280
     93 H           1.4350   -0.4976    3.6532 H         1 UNL    0.0280
     94 H           2.0822    0.9810    4.3945 H         1 UNL    0.0280
@<TRIPOS>BOND
     1    1    2 ar
     2    1    6 ar
     3    1   52 1
     4    2    3 ar
     5    2   53 1
     6    3    4 ar
     7    3   51 1
     8    4    5 ar
     9    4    7 1
    10    5    6 ar
    11    5   54 1
    12    6   55 1
    13    7    8 1
    14    7   15 1
    15    7   56 1
    16    8    9 ar
    17    8   13 ar
    18    9   10 ar
    19    9   14 1
    20   10   11 ar
    21   10   57 1
    22   11   12 ar
    23   11   58 1
    24   12   13 ar
    25   12   59 1
    26   14   60 1
    27   14   61 1
    28   14   62 1
    29   15   16 am
    30   15   50 1
    31   16   17 2
    32   16   18 1
    33   18   19 1
    34   18   23 1
    35   18   63 1
    36   19   20 1
    37   19   64 1
    38   19   65 1
    39   20   21 1
    40   20   66 1
    41   20   67 1
    42   21   22 1
    43   21   24 1
    44   22   23 1
    45   22   68 1
    46   22   69 1
    47   23   70 1
    48   23   71 1
    49   24   25 1
    50   24   72 1
    51   24   73 1
    52   25   26 1
    53   25   74 1
    54   25   75 1
    55   26   27 1
    56   27   28 ar
    57   27   32 ar
    58   28   29 ar
    59   28   76 1
    60   29   30 ar
    61   29   77 1
    62   30   31 ar
    63   30   34 1
    64   31   32 ar
    65   31   78 1
    66   32   33 1
    67   34   35 1
    68   34   79 1
    69   35   36 ar
    70   35   40 ar
    71   36   37 ar
    72   36   80 1
    73   37   38 ar
    74   38   39 ar
    75   38   41 1
    76   39   40 ar
    77   39   81 1
    78   40   82 1
    79   41   42 ar
    80   41   46 ar
    81   42   43 ar
    82   42   83 1
    83   43   44 ar
    84   43   47 1
    85   44   45 ar
    86   44   84 1
    87   45   46 ar
    88   45   85 1
    89   46   86 1
    90   47   48 2
    91   47   49 am
    92   49   87 1
    93   49   88 1
    94   50   89 1
    95   50   90 1
    96   50   91 1
    97   51   92 1
    98   51   93 1
    99   51   94 1
@<TRIPOS>SUBSTRUCTURE
     1 UNL     1 RESIDUE           4 A     UNL     0 ROOT

