
##########                                Name:     oleObject80.pdb
##########                DOCK_Rotatable_Bonds:                  14
##########                         Heavy_Atoms:                  51
##########                    Molecular_Weight:             703.283
##########                DOCK_Rotatable_Bonds:                  14
##########                       Formal_Charge:         0.000299793
##########                     HBond_Acceptors:                  10
##########                        HBond_Donors:                   3
##########                         Heavy_Atoms:                  51
##########                          Grid_Score:          -46.173744
##########                     Grid_vdw_energy:          -45.941288
##########                      Grid_es_energy:           -0.232457
##########           Internal_energy_repulsive:           39.164234

@<TRIPOS>MOLECULE
oleObject80.pdb
 94 99 1 0 0
SMALL
NO_CHARGES


@<TRIPOS>ATOM
      1 C          -9.7333    1.0394   59.9739 C.ar    1  UNL        -0.0620
      2 C          -9.9452   -0.2593   60.4578 C.ar    1  UNL        -0.0590
      3 C         -10.9569   -1.0744   59.9139 C.ar    1  UNL        -0.0456
      4 C         -11.7725   -0.5775   58.8655 C.ar    1  UNL        -0.0185
      5 C         -11.5448    0.7325   58.3880 C.ar    1  UNL        -0.0565
      6 C         -10.5337    1.5347   58.9368 C.ar    1  UNL        -0.0619
      7 C         -12.8914   -1.4423   58.2577 C.3     1  UNL         0.0931
      8 C         -14.1120   -1.6170   59.1789 C.ar    1  UNL         0.0683
      9 C         -14.6511   -0.5289   59.9110 C.ar    1  UNL        -0.0272
     10 C         -15.7649   -0.7638   60.7390 C.ar    1  UNL        -0.0559
     11 C         -16.3050   -2.0559   60.8088 C.ar    1  UNL        -0.0435
     12 C         -15.7150   -3.0726   60.0440 C.ar    1  UNL         0.0272
     13 N         -14.6499   -2.8579   59.2495 N.ar    1  UNL        -0.2587
     14 C         -14.0674    0.8773   59.8285 C.3     1  UNL        -0.0379
     15 N         -13.2520   -1.0739   56.8581 N.am    1  UNL        -0.2918
     16 C         -12.4609   -1.5000   55.7851 C.2     1  UNL         0.2180
     17 O         -11.6315   -2.3825   55.9351 O.2     1  UNL        -0.2772
     18 C         -12.9076   -1.0726   54.3645 C.3     1  UNL         0.0385
     19 C         -12.4517   -2.0842   53.2841 C.3     1  UNL        -0.0289
     20 C         -10.9346   -1.9980   53.0193 C.3     1  UNL        -0.0010
     21 N         -10.5285   -0.6346   52.6161 N.4     1  UNL        -0.3010
     22 C         -10.9128    0.4023   53.6038 C.3     1  UNL        -0.0010
     23 C         -12.4166    0.3470   53.9747 C.3     1  UNL        -0.0289
     24 C          -9.1050   -0.5909   52.2144 C.3     1  UNL         0.0222
     25 C          -8.5698    0.8400   52.0009 C.3     1  UNL         0.0661
     26 O          -7.5861    0.7885   50.9522 O.3     1  UNL        -0.3432
     27 C          -6.4554    1.5822   50.9260 C.ar    1  UNL         0.0937
     28 C          -5.1979    1.1090   51.3524 C.ar    1  UNL        -0.0284
     29 C          -4.0743    1.9509   51.3103 C.ar    1  UNL        -0.0381
     30 C          -4.1811    3.2680   50.8315 C.ar    1  UNL         0.0319
     31 C          -5.4424    3.7460   50.4268 C.ar    1  UNL        -0.0194
     32 C          -6.5697    2.9090   50.4681 C.ar    1  UNL         0.0727
     33 CL         -8.1175    3.5502   49.9493 Cl      1  UNL        -0.0814
     34 N          -3.0438    4.0736   50.8240 N.pl3   1  UNL        -0.3136
     35 C          -1.8980    4.0668   51.6187 C.ar    1  UNL         0.0489
     36 C          -0.6381    3.8961   51.0183 C.ar    1  UNL         0.0488
     37 N           0.5176    3.8965   51.7122 N.ar    1  UNL        -0.2543
     38 C           0.5025    4.0826   53.0504 C.ar    1  UNL         0.0703
     39 C          -0.7278    4.2804   53.7296 C.ar    1  UNL        -0.0339
     40 C          -1.9331    4.2776   53.0093 C.ar    1  UNL        -0.0371
     41 C           1.8330    4.0762   53.7551 C.ar    1  UNL         0.0009
     42 C           2.8909    3.2258   53.3398 C.ar    1  UNL        -0.0402
     43 C           4.1416    3.2100   53.9919 C.ar    1  UNL         0.0375
     44 C           4.3435    4.0680   55.0929 C.ar    1  UNL        -0.0496
     45 C           3.3147    4.9148   55.5281 C.ar    1  UNL        -0.0608
     46 C           2.0763    4.9180   54.8705 C.ar    1  UNL        -0.0528
     47 C           5.2229    2.2790   53.4987 C.2     1  UNL         0.2403
     48 O           6.3136    2.2021   54.0351 O.2     1  UNL        -0.2722
     49 N           4.9371    1.4976   52.3992 N.am    1  UNL        -0.3251
     50 C         -14.5110   -0.3213   56.6590 C.3     1  UNL         0.0037
     51 C         -11.1385   -2.4807   60.4778 C.3     1  UNL        -0.0394
     52 H          -8.9494    1.6587   60.4005 H       1  UNL         0.0623
     53 H          -9.3169   -0.6335   61.2613 H       1  UNL         0.0626
     54 H         -12.1449    1.1385   57.5799 H       1  UNL         0.0627
     55 H         -10.3708    2.5391   58.5566 H       1  UNL         0.0623
     56 H         -12.4562   -2.4428   58.1950 H       1  UNL         0.0626
     57 H         -16.2059    0.0417   61.3193 H       1  UNL         0.0627
     58 H         -17.1639   -2.2649   61.4397 H       1  UNL         0.0639
     59 H         -16.1056   -4.0891   60.0677 H       1  UNL         0.0840
     60 H         -13.0657    0.9137   60.2745 H       1  UNL         0.0280
     61 H         -14.6910    1.6058   60.3615 H       1  UNL         0.0280
     62 H         -13.9898    1.2152   58.7877 H       1  UNL         0.0280
     63 H         -14.0030   -1.0331   54.3601 H       1  UNL         0.0402
     64 H         -12.9850   -1.8740   52.3480 H       1  UNL         0.0288
     65 H         -12.7181   -3.1076   53.5692 H       1  UNL         0.0288
     66 H         -10.6785   -2.7136   52.2273 H       1  UNL         0.0431
     67 H         -10.3920   -2.2977   53.9263 H       1  UNL         0.0431
     68 H         -10.7040    1.4028   53.2073 H       1  UNL         0.0431
     69 H         -10.3089    0.2809   54.5115 H       1  UNL         0.0431
     70 H         -12.9950    0.6890   53.1066 H       1  UNL         0.0288
     71 H         -12.6269    1.0551   54.7863 H       1  UNL         0.0288
     72 H          -8.9802   -1.1375   51.2705 H       1  UNL         0.0455
     73 H          -8.4883   -1.0942   52.9706 H       1  UNL         0.0455
     74 H          -8.1131    1.2150   52.9249 H       1  UNL         0.0586
     75 H          -9.3978    1.5002   51.7132 H       1  UNL         0.0586
     76 H          -5.0780    0.0949   51.7192 H       1  UNL         0.0652
     77 H          -3.1116    1.5728   51.6432 H       1  UNL         0.0644
     78 H          -5.5612    4.7736   50.0981 H       1  UNL         0.0659
     79 H          -3.0547    4.8000   50.1194 H       1  UNL         0.1528
     80 H          -0.5505    3.7441   49.9433 H       1  UNL         0.0861
     81 H          -0.7594    4.4261   54.8038 H       1  UNL         0.0646
     82 H          -2.8703    4.4552   53.5273 H       1  UNL         0.0644
     83 H           2.7363    2.5501   52.5059 H       1  UNL         0.0638
     84 H           5.2912    4.0871   55.6218 H       1  UNL         0.0631
     85 H           3.4771    5.5724   56.3776 H       1  UNL         0.0623
     86 H           1.3021    5.5907   55.2284 H       1  UNL         0.0630
     87 H           5.6330    0.8603   52.0360 H       1  UNL         0.1458
     88 H           4.0248    1.5726   51.9674 H       1  UNL         0.1458
     89 H         -14.9507   -0.0032   57.6102 H       1  UNL         0.0433
     90 H         -15.2484   -0.9479   56.1441 H       1  UNL         0.0433
     91 H         -14.3119    0.5715   56.0531 H       1  UNL         0.0433
     92 H         -10.3948   -2.7070   61.2520 H       1  UNL         0.0280
     93 H         -11.0296   -3.2403   59.6943 H       1  UNL         0.0280
     94 H         -12.1286   -2.6009   60.9344 H       1  UNL         0.0280
@<TRIPOS>BOND
     1     1     2   ar
     2     1     6   ar
     3     1    52    1
     4     2     3   ar
     5     2    53    1
     6     3     4   ar
     7     3    51    1
     8     4     5   ar
     9     4     7    1
    10     5     6   ar
    11     5    54    1
    12     6    55    1
    13     7     8    1
    14     7    15    1
    15     7    56    1
    16     8     9   ar
    17     8    13   ar
    18     9    10   ar
    19     9    14    1
    20    10    11   ar
    21    10    57    1
    22    11    12   ar
    23    11    58    1
    24    12    13   ar
    25    12    59    1
    26    14    60    1
    27    14    61    1
    28    14    62    1
    29    15    16   am
    30    15    50    1
    31    16    17    2
    32    16    18    1
    33    18    19    1
    34    18    23    1
    35    18    63    1
    36    19    20    1
    37    19    64    1
    38    19    65    1
    39    20    21    1
    40    20    66    1
    41    20    67    1
    42    21    22    1
    43    21    24    1
    44    22    23    1
    45    22    68    1
    46    22    69    1
    47    23    70    1
    48    23    71    1
    49    24    25    1
    50    24    72    1
    51    24    73    1
    52    25    26    1
    53    25    74    1
    54    25    75    1
    55    26    27    1
    56    27    28   ar
    57    27    32   ar
    58    28    29   ar
    59    28    76    1
    60    29    30   ar
    61    29    77    1
    62    30    31   ar
    63    30    34    1
    64    31    32   ar
    65    31    78    1
    66    32    33    1
    67    34    35    1
    68    34    79    1
    69    35    36   ar
    70    35    40   ar
    71    36    37   ar
    72    36    80    1
    73    37    38   ar
    74    38    39   ar
    75    38    41    1
    76    39    40   ar
    77    39    81    1
    78    40    82    1
    79    41    42   ar
    80    41    46   ar
    81    42    43   ar
    82    42    83    1
    83    43    44   ar
    84    43    47    1
    85    44    45   ar
    86    44    84    1
    87    45    46   ar
    88    45    85    1
    89    46    86    1
    90    47    48    2
    91    47    49   am
    92    49    87    1
    93    49    88    1
    94    50    89    1
    95    50    90    1
    96    50    91    1
    97    51    92    1
    98    51    93    1
    99    51    94    1
@<TRIPOS>SUBSTRUCTURE
     1 UNL         1 TEMP              0 ****  ****    0 ROOT


##########                                Name:     oleObject79.pdb
##########                DOCK_Rotatable_Bonds:                  12
##########                         Heavy_Atoms:                  53
##########                    Molecular_Weight:             725.376
##########                DOCK_Rotatable_Bonds:                  12
##########                       Formal_Charge:          0.00050066
##########                     HBond_Acceptors:                   8
##########                        HBond_Donors:                   4
##########                         Heavy_Atoms:                  53
##########                          Grid_Score:          -44.524799
##########                     Grid_vdw_energy:          -44.225464
##########                      Grid_es_energy:           -0.299335
##########           Internal_energy_repulsive:           36.737030

@<TRIPOS>MOLECULE
oleObject79.pdb
 102 108 1 0 0
SMALL
NO_CHARGES


@<TRIPOS>ATOM
      1 C         -11.8515    3.1271   61.1320 C.ar    1  UNL        -0.0620
      2 C         -12.7136    2.2355   60.4788 C.ar    1  UNL        -0.0590
      3 C         -12.2950    1.5394   59.3279 C.ar    1  UNL        -0.0456
      4 C         -10.9830    1.7396   58.8225 C.ar    1  UNL        -0.0185
      5 C         -10.1299    2.6415   59.4949 C.ar    1  UNL        -0.0565
      6 C         -10.5577    3.3304   60.6387 C.ar    1  UNL        -0.0619
      7 C         -10.4498    0.9661   57.5995 C.3     1  UNL         0.0931
      8 C         -10.7950   -0.5347   57.5751 C.ar    1  UNL         0.0683
      9 C         -10.3380   -1.4136   58.5905 C.ar    1  UNL        -0.0272
     10 C         -10.6894   -2.7742   58.5083 C.ar    1  UNL        -0.0559
     11 C         -11.4763   -3.2140   57.4344 C.ar    1  UNL        -0.0435
     12 C         -11.8870   -2.2768   56.4754 C.ar    1  UNL         0.0272
     13 N         -11.5549   -0.9743   56.5448 N.ar    1  UNL        -0.2587
     14 C          -9.4830   -0.9346   59.7593 C.3     1  UNL        -0.0379
     15 N         -10.7425    1.6904   56.3310 N.am    1  UNL        -0.2918
     16 C         -10.0219    1.4023   55.1699 C.2     1  UNL         0.2179
     17 O          -8.9587    0.8084   55.2411 O.2     1  UNL        -0.2772
     18 C         -10.4003    2.2098   53.8990 C.3     1  UNL         0.0361
     19 C         -10.2554    1.3885   52.5858 C.3     1  UNL        -0.0412
     20 C          -8.7821    1.1580   52.1495 C.3     1  UNL        -0.0453
     21 C          -7.9164    2.4522   52.0969 C.3     1  UNL        -0.0139
     22 C          -6.4223    2.0403   51.9844 C.3     1  UNL         0.0171
     23 N          -5.5553    3.2255   51.8256 N.pl3   1  UNL        -0.3290
     24 C          -5.8333    4.0146   50.6096 C.3     1  UNL         0.0115
     25 C          -7.3109    4.4721   50.5835 C.3     1  UNL        -0.0368
     26 C          -8.2850    3.2933   50.8328 C.3     1  UNL        -0.0446
     27 C          -4.4323    3.4291   52.6345 C.ar    1  UNL         0.0476
     28 C          -4.5939    4.0706   53.8780 C.ar    1  UNL        -0.0375
     29 C          -3.4918    4.3228   54.7094 C.ar    1  UNL        -0.0388
     30 C          -2.1974    3.9595   54.3073 C.ar    1  UNL         0.0318
     31 C          -2.0290    3.3025   53.0747 C.ar    1  UNL        -0.0202
     32 C          -3.1293    3.0427   52.2401 C.ar    1  UNL         0.0636
     33 CL         -2.7940    2.2933   50.6886 Cl      1  UNL        -0.0822
     34 N          -1.1271    4.2261   55.1589 N.pl3   1  UNL        -0.3149
     35 C          -0.4922    3.4405   56.1194 C.ar    1  UNL         0.0302
     36 C           0.8743    3.1149   56.0388 C.ar    1  UNL        -0.0402
     37 C           1.4852    2.3431   57.0400 C.ar    1  UNL        -0.0525
     38 C           0.7534    1.8764   58.1601 C.ar    1  UNL        -0.0182
     39 C          -0.6170    2.2293   58.2344 C.ar    1  UNL        -0.0525
     40 C          -1.2259    3.0057   57.2349 C.ar    1  UNL        -0.0402
     41 C           1.4050    1.0505   59.2311 C.ar    1  UNL        -0.0177
     42 C           1.1036    1.2530   60.6021 C.ar    1  UNL        -0.0439
     43 C           1.7095    0.4872   61.6220 C.ar    1  UNL         0.0111
     44 C           2.6422   -0.5057   61.2573 C.ar    1  UNL        -0.0518
     45 C           2.9561   -0.7262   59.9086 C.ar    1  UNL        -0.0609
     46 C           2.3445    0.0416   58.9072 C.ar    1  UNL        -0.0543
     47 C           1.3894    0.7058   62.9658 C.2     1  UNL         0.1014
     48 N           0.1906    0.9410   63.3551 N.3     1  UNL        -0.2892
     49 N           2.3389    0.6835   63.9111 N.3     1  UNL        -0.2870
     50 C          -8.1127    3.2605   53.4172 C.3     1  UNL        -0.0453
     51 C          -9.5924    3.5270   53.7670 C.3     1  UNL        -0.0412
     52 C         -11.8323    2.6908   56.3376 C.3     1  UNL         0.0037
     53 C         -13.2780    0.5688   58.6818 C.3     1  UNL        -0.0394
     54 H         -12.1829    3.6562   62.0203 H       1  UNL         0.0623
     55 H         -13.7130    2.0801   60.8749 H       1  UNL         0.0626
     56 H          -9.1225    2.8117   59.1303 H       1  UNL         0.0627
     57 H          -9.8851    4.0183   61.1426 H       1  UNL         0.0623
     58 H          -9.3624    0.9675   57.6901 H       1  UNL         0.0626
     59 H         -10.3594   -3.4805   59.2649 H       1  UNL         0.0627
     60 H         -11.7632   -4.2577   57.3471 H       1  UNL         0.0639
     61 H         -12.5007   -2.5759   55.6265 H       1  UNL         0.0840
     62 H          -8.5332   -0.5125   59.4095 H       1  UNL         0.0280
     63 H          -9.2407   -1.7554   60.4457 H       1  UNL         0.0280
     64 H         -10.0027   -0.1652   60.3435 H       1  UNL         0.0280
     65 H         -11.4613    2.4691   53.9990 H       1  UNL         0.0401
     66 H         -10.7803    1.9189   51.7811 H       1  UNL         0.0275
     67 H         -10.7632    0.4214   52.6937 H       1  UNL         0.0275
     68 H          -8.7710    0.6604   51.1712 H       1  UNL         0.0273
     69 H          -8.3141    0.4468   52.8402 H       1  UNL         0.0273
     70 H          -6.2891    1.3749   51.1215 H       1  UNL         0.0474
     71 H          -6.1367    1.4778   52.8831 H       1  UNL         0.0474
     72 H          -5.6375    3.3925   49.7268 H       1  UNL         0.0468
     73 H          -5.1731    4.8883   50.5475 H       1  UNL         0.0468
     74 H          -7.5335    4.9358   49.6145 H       1  UNL         0.0283
     75 H          -7.4692    5.2484   51.3413 H       1  UNL         0.0283
     76 H          -8.2545    2.6407   49.9504 H       1  UNL         0.0273
     77 H          -9.3114    3.6733   50.8932 H       1  UNL         0.0273
     78 H          -5.5836    4.3710   54.2096 H       1  UNL         0.0644
     79 H          -3.6443    4.8180   55.6643 H       1  UNL         0.0643
     80 H          -1.0408    2.9849   52.7570 H       1  UNL         0.0659
     81 H          -0.7263    5.1485   55.0470 H       1  UNL         0.1528
     82 H           1.4767    3.4728   55.2111 H       1  UNL         0.0643
     83 H           2.5371    2.0976   56.9334 H       1  UNL         0.0630
     84 H          -1.2147    1.9181   59.0853 H       1  UNL         0.0630
     85 H          -2.2768    3.2654   57.3262 H       1  UNL         0.0643
     86 H           0.3795    2.0142   60.8754 H       1  UNL         0.0637
     87 H           3.1194   -1.1207   62.0154 H       1  UNL         0.0630
     88 H           3.6762   -1.4936   59.6385 H       1  UNL         0.0623
     89 H           2.6190   -0.1385   57.8725 H       1  UNL         0.0629
     90 H          -0.3388    0.0707   63.4403 H       1  UNL         0.1889
     91 H           2.7594    1.5548   64.2290 H       1  UNL         0.1258
     92 H           2.2184    0.0878   64.7283 H       1  UNL         0.1258
     93 H          -7.5782    4.2163   53.3809 H       1  UNL         0.0273
     94 H          -7.6591    2.6995   54.2422 H       1  UNL         0.0273
     95 H         -10.0466    4.1550   52.9914 H       1  UNL         0.0275
     96 H          -9.6467    4.1156   54.6887 H       1  UNL         0.0275
     97 H         -11.4852    3.6471   55.9307 H       1  UNL         0.0433
     98 H         -12.2029    2.8749   57.3524 H       1  UNL         0.0433
     99 H         -12.6636    2.3243   55.7227 H       1  UNL         0.0433
    100 H         -14.2609    0.6002   59.1682 H       1  UNL         0.0280
    101 H         -12.9131   -0.4637   58.7514 H       1  UNL         0.0280
    102 H         -13.4320    0.8084   57.6222 H       1  UNL         0.0280
@<TRIPOS>BOND
     1     1     2   ar
     2     1     6   ar
     3     1    54    1
     4     2     3   ar
     5     2    55    1
     6     3     4   ar
     7     3    53    1
     8     4     5   ar
     9     4     7    1
    10     5     6   ar
    11     5    56    1
    12     6    57    1
    13     7     8    1
    14     7    15    1
    15     7    58    1
    16     8     9   ar
    17     8    13   ar
    18     9    10   ar
    19     9    14    1
    20    10    11   ar
    21    10    59    1
    22    11    12   ar
    23    11    60    1
    24    12    13   ar
    25    12    61    1
    26    14    62    1
    27    14    63    1
    28    14    64    1
    29    15    16   am
    30    15    52    1
    31    16    17    2
    32    16    18    1
    33    18    19    1
    34    18    51    1
    35    18    65    1
    36    19    20    1
    37    19    66    1
    38    19    67    1
    39    20    21    1
    40    20    68    1
    41    20    69    1
    42    21    22    1
    43    21    26    1
    44    21    50    1
    45    22    23    1
    46    22    70    1
    47    22    71    1
    48    23    24    1
    49    23    27    1
    50    24    25    1
    51    24    72    1
    52    24    73    1
    53    25    26    1
    54    25    74    1
    55    25    75    1
    56    26    76    1
    57    26    77    1
    58    27    28   ar
    59    27    32   ar
    60    28    29   ar
    61    28    78    1
    62    29    30   ar
    63    29    79    1
    64    30    31   ar
    65    30    34    1
    66    31    32   ar
    67    31    80    1
    68    32    33    1
    69    34    35    1
    70    34    81    1
    71    35    36   ar
    72    35    40   ar
    73    36    37   ar
    74    36    82    1
    75    37    38   ar
    76    37    83    1
    77    38    39   ar
    78    38    41    1
    79    39    40   ar
    80    39    84    1
    81    40    85    1
    82    41    42   ar
    83    41    46   ar
    84    42    43   ar
    85    42    86    1
    86    43    44   ar
    87    43    47    1
    88    44    45   ar
    89    44    87    1
    90    45    46   ar
    91    45    88    1
    92    46    89    1
    93    47    48    1
    94    47    49    1
    95    48    90    1
    96    49    91    1
    97    49    92    1
    98    50    51    1
    99    50    93    1
   100    50    94    1
   101    51    95    1
   102    51    96    1
   103    52    97    1
   104    52    98    1
   105    52    99    1
   106    53   100    1
   107    53   101    1
   108    53   102    1
@<TRIPOS>SUBSTRUCTURE
     1 UNL         1 TEMP              0 ****  ****    0 ROOT


##########                                Name:     oleObject15.pdb
##########                DOCK_Rotatable_Bonds:                   9
##########                         Heavy_Atoms:                  29
##########                    Molecular_Weight:             395.545
##########                DOCK_Rotatable_Bonds:                   9
##########                       Formal_Charge:         0.000700183
##########                     HBond_Acceptors:                   5
##########                        HBond_Donors:                   1
##########                         Heavy_Atoms:                  29
##########                          Grid_Score:          -40.025627
##########                     Grid_vdw_energy:          -40.137783
##########                      Grid_es_energy:            0.112155
##########           Internal_energy_repulsive:           12.417780

@<TRIPOS>MOLECULE
oleObject15.pdb
 62 64 1 0 0
SMALL
NO_CHARGES


@<TRIPOS>ATOM
      1 O          -5.6822    1.0845   51.3956 O.3     1  UNL        -0.3745
      2 C          -7.0820    0.7513   51.2572 C.3     1  UNL         0.0600
      3 C          -7.6381    0.3718   52.6492 C.3     1  UNL         0.0217
      4 N          -9.1081    0.1922   52.6975 N.4     1  UNL        -0.3010
      5 C          -9.5853   -1.1299   52.2308 C.3     1  UNL        -0.0010
      6 C         -11.1272   -1.1998   52.1832 C.3     1  UNL        -0.0289
      7 C         -11.7883   -0.8119   53.5277 C.3     1  UNL         0.0382
      8 C         -11.2075    0.5313   54.0372 C.3     1  UNL        -0.0289
      9 C          -9.6619    0.5811   54.0117 C.3     1  UNL        -0.0010
     10 C         -11.6614   -1.9448   54.5763 C.2     1  UNL         0.2156
     11 O         -11.5786   -3.1157   54.2528 O.2     1  UNL        -0.2774
     12 N         -11.5924   -1.6305   55.9276 N.am    1  UNL        -0.3025
     13 C         -11.4706   -2.5628   57.0640 C.3     1  UNL         0.0900
     14 C         -10.8026   -1.9305   58.2836 C.ar    1  UNL        -0.0217
     15 C         -10.8575   -2.5505   59.5483 C.ar    1  UNL        -0.0568
     16 C         -10.2485   -1.9492   60.6618 C.ar    1  UNL        -0.0619
     17 C          -9.5768   -0.7249   60.5199 C.ar    1  UNL        -0.0622
     18 C          -9.5125   -0.1041   59.2626 C.ar    1  UNL        -0.0619
     19 C         -10.1213   -0.7058   58.1492 C.ar    1  UNL        -0.0568
     20 C         -12.8181   -3.1713   57.4413 C.ar    1  UNL         0.0652
     21 C         -13.6982   -2.5270   58.3354 C.ar    1  UNL        -0.0383
     22 C         -14.9206   -3.1417   58.6503 C.ar    1  UNL        -0.0588
     23 C         -15.2203   -4.3799   58.0615 C.ar    1  UNL        -0.0438
     24 C         -14.2856   -4.9531   57.1824 C.ar    1  UNL         0.0272
     25 N         -13.1110   -4.3643   56.8789 N.ar    1  UNL        -0.2590
     26 C          -5.2651    2.4681   51.3139 C.3     1  UNL         0.0599
     27 C          -6.0322    3.3055   52.3679 C.3     1  UNL        -0.0364
     28 C          -3.7564    2.4518   51.6486 C.3     1  UNL        -0.0364
     29 C          -5.4872    3.0062   49.8782 C.3     1  UNL        -0.0364
     30 H          -7.2058   -0.1047   50.5829 H       1  UNL         0.0581
     31 H          -7.6550    1.5911   50.8496 H       1  UNL         0.0581
     32 H          -7.3499    1.1661   53.3496 H       1  UNL         0.0455
     33 H          -7.1461   -0.5508   52.9823 H       1  UNL         0.0455
     34 H          -9.2048   -1.9172   52.8942 H       1  UNL         0.0431
     35 H          -9.2139   -1.3365   51.2203 H       1  UNL         0.0431
     36 H         -11.4407   -2.2055   51.8800 H       1  UNL         0.0288
     37 H         -11.4815   -0.5134   51.4031 H       1  UNL         0.0288
     38 H         -12.8471   -0.6258   53.3290 H       1  UNL         0.0402
     39 H         -11.5709    0.7378   55.0519 H       1  UNL         0.0288
     40 H         -11.5859    1.3403   53.3989 H       1  UNL         0.0288
     41 H          -9.2630   -0.0816   54.7898 H       1  UNL         0.0431
     42 H          -9.3447    1.6022   54.2594 H       1  UNL         0.0431
     43 H         -11.5280   -0.6438   56.1428 H       1  UNL         0.1504
     44 H         -10.8400   -3.3941   56.7237 H       1  UNL         0.0624
     45 H         -11.3806   -3.4941   59.6734 H       1  UNL         0.0626
     46 H         -10.2994   -2.4310   61.6340 H       1  UNL         0.0623
     47 H          -9.1062   -0.2595   61.3812 H       1  UNL         0.0623
     48 H          -8.9908    0.8421   59.1506 H       1  UNL         0.0623
     49 H         -10.0647   -0.2177   57.1802 H       1  UNL         0.0626
     50 H         -13.4405   -1.5696   58.7778 H       1  UNL         0.0643
     51 H         -15.6188   -2.6693   59.3353 H       1  UNL         0.0624
     52 H         -16.1558   -4.8861   58.2809 H       1  UNL         0.0639
     53 H         -14.4825   -5.9132   56.7069 H       1  UNL         0.0840
     54 H          -5.9727    2.8353   53.3578 H       1  UNL         0.0260
     55 H          -7.0908    3.4160   52.1036 H       1  UNL         0.0260
     56 H          -5.6065    4.3138   52.4463 H       1  UNL         0.0260
     57 H          -3.5833    2.0410   52.6517 H       1  UNL         0.0260
     58 H          -3.3349    3.4646   51.6194 H       1  UNL         0.0260
     59 H          -3.2034    1.8334   50.9300 H       1  UNL         0.0260
     60 H          -6.5549    3.1018   49.6450 H       1  UNL         0.0260
     61 H          -5.0317    2.3382   49.1359 H       1  UNL         0.0260
     62 H          -5.0346    3.9991   49.7622 H       1  UNL         0.0260
@<TRIPOS>BOND
     1     1     2    1
     2     1    26    1
     3     2     3    1
     4     2    30    1
     5     2    31    1
     6     3     4    1
     7     3    32    1
     8     3    33    1
     9     4     5    1
    10     4     9    1
    11     5     6    1
    12     5    34    1
    13     5    35    1
    14     6     7    1
    15     6    36    1
    16     6    37    1
    17     7     8    1
    18     7    10    1
    19     7    38    1
    20     8     9    1
    21     8    39    1
    22     8    40    1
    23     9    41    1
    24     9    42    1
    25    10    11    2
    26    10    12   am
    27    12    13    1
    28    12    43    1
    29    13    14    1
    30    13    20    1
    31    13    44    1
    32    14    15   ar
    33    14    19   ar
    34    15    16   ar
    35    15    45    1
    36    16    17   ar
    37    16    46    1
    38    17    18   ar
    39    17    47    1
    40    18    19   ar
    41    18    48    1
    42    19    49    1
    43    20    21   ar
    44    20    25   ar
    45    21    22   ar
    46    21    50    1
    47    22    23   ar
    48    22    51    1
    49    23    24   ar
    50    23    52    1
    51    24    25   ar
    52    24    53    1
    53    26    27    1
    54    26    28    1
    55    26    29    1
    56    27    54    1
    57    27    55    1
    58    27    56    1
    59    28    57    1
    60    28    58    1
    61    28    59    1
    62    29    60    1
    63    29    61    1
    64    29    62    1
@<TRIPOS>SUBSTRUCTURE
     1 UNL         1 TEMP              0 ****  ****    0 ROOT


##########                                Name:    ZINC001591898574
##########                DOCK_Rotatable_Bonds:                  10
##########                         Heavy_Atoms:                  26
##########                    Molecular_Weight:             383.434
##########                DOCK_Rotatable_Bonds:                  10
##########                       Formal_Charge:         5.96046e-08
##########                     HBond_Acceptors:                  13
##########                        HBond_Donors:                   3
##########                         Heavy_Atoms:                  26
##########                          Grid_Score:          -39.649067
##########                     Grid_vdw_energy:          -36.499676
##########                      Grid_es_energy:           -3.149390
##########           Internal_energy_repulsive:           12.794332

@<TRIPOS>MOLECULE
ZINC001591898574
 47 48 1 0 0
SMALL
USER_CHARGES


@<TRIPOS>ATOM
      1 C1        -14.7732   -3.4720   57.7527 C.3     1  ZINC001591898574   -0.1100
      2 C2        -13.3142   -3.1580   57.5425 C.ar    1  ZINC001591898574    0.2300
      3 C3        -12.5219   -2.7697   58.6082 C.ar    1  ZINC001591898574   -0.2400
      4 C4        -11.1747   -2.4886   58.3682 C.ar    1  ZINC001591898574    0.3000
      5 C5        -10.2835   -2.0687   59.4780 C.2     1  ZINC001591898574    0.2100
      6 N6         -8.9664   -2.0157   59.4533 N.2     1  ZINC001591898574   -0.2500
      7 N7         -8.5668   -1.6030   60.6069 N.pl3   1  ZINC001591898574   -0.2200
      8 N8         -9.5883   -1.3929   61.3616 N.2     1  ZINC001591898574   -0.0400
      9 N9        -10.6613   -1.6639   60.6991 N.2     1  ZINC001591898574   -0.2500
     10 N10       -10.7027   -2.6036   57.1295 N.ar    1  ZINC001591898574   -0.5500
     11 C11       -11.4956   -2.9785   56.1379 C.ar    1  ZINC001591898574    0.5800
     12 N12       -10.9727   -3.0882   54.8610 N.pl3   1  ZINC001591898574   -0.7000
     13 C13       -11.8649   -3.0616   53.6992 C.3     1  ZINC001591898574    0.1400
     14 C14       -12.1282   -1.6106   53.2916 C.3     1  ZINC001591898574   -0.1500
     15 C15       -11.1863   -1.2227   52.1500 C.3     1  ZINC001591898574    0.1200
     16 N16       -10.0099   -0.5425   52.6972 N.am    1  ZINC001591898574   -0.7300
     17 C17        -9.9195    0.8009   52.6374 C.2     1  ZINC001591898574    0.4900
     18 O18       -10.8129    1.4468   52.1318 O.2     1  ZINC001591898574   -0.5300
     19 C19        -8.7085    1.5005   53.1987 C.3     1  ZINC001591898574    0.1000
     20 N20        -7.6426    1.5134   52.1938 N.am    1  ZINC001591898574   -0.9800
     21 C21        -6.8270    0.3162   51.9755 C.3     1  ZINC001591898574    0.1000
     22 S22        -7.3596    2.8815   51.3046 S.o2    1  ZINC001591898574    2.6100
     23 C23        -5.9797    2.4356   50.2147 C.3     1  ZINC001591898574   -0.6600
     24 O24        -8.5511    3.0629   50.5518 O.2     1  ZINC001591898574   -0.9500
     25 O25        -6.9458    3.8441   52.2646 O.2     1  ZINC001591898574   -0.9600
     26 N26       -12.7758   -3.2561   56.3373 N.ar    1  ZINC001591898574   -0.5600
     27 H27       -14.8867   -4.5299   57.9897 H       1  ZINC001591898574    0.0900
     28 H28       -15.1590   -2.8717   58.5766 H       1  ZINC001591898574    0.0900
     29 H29       -15.3290   -3.2417   56.8438 H       1  ZINC001591898574    0.0900
     30 H30       -12.9354   -2.6853   59.6023 H       1  ZINC001591898574    0.1600
     31 H31        -7.6413   -1.4714   60.8659 H       1  ZINC001591898574    0.4800
     32 H32       -10.0155   -3.1826   54.7354 H       1  ZINC001591898574    0.4200
     33 H33       -11.3975   -3.5929   52.8701 H       1  ZINC001591898574    0.0700
     34 H34       -12.8082   -3.5443   53.9545 H       1  ZINC001591898574    0.0700
     35 H35       -13.1616   -1.5079   52.9608 H       1  ZINC001591898574    0.0800
     36 H36       -11.9531   -0.9559   54.1453 H       1  ZINC001591898574    0.0800
     37 H37       -10.8720   -2.1202   51.6173 H       1  ZINC001591898574    0.0700
     38 H38       -11.7049   -0.5548   51.4621 H       1  ZINC001591898574    0.0700
     39 H39        -9.2959   -1.0589   53.1027 H       1  ZINC001591898574    0.4000
     40 H40        -8.9707    2.5248   53.4634 H       1  ZINC001591898574    0.1200
     41 H41        -8.3634    0.9725   54.0876 H       1  ZINC001591898574    0.1300
     42 H42        -7.2915   -0.3053   51.2099 H       1  ZINC001591898574    0.0600
     43 H43        -5.8297    0.6105   51.6487 H       1  ZINC001591898574    0.0700
     44 H44        -6.7530   -0.2475   52.9055 H       1  ZINC001591898574    0.0700
     45 H45        -6.2708    1.5944   49.5857 H       1  ZINC001591898574    0.1300
     46 H46        -5.7234    3.2882   49.5857 H       1  ZINC001591898574    0.1200
     47 H47        -5.1158    2.1564   50.8179 H       1  ZINC001591898574    0.1300
@<TRIPOS>BOND
     1     1     2    1
     2     1    27    1
     3     1    28    1
     4     1    29    1
     5     2    26   ar
     6     2     3   ar
     7     3     4   ar
     8     3    30    1
     9     4     5    1
    10     4    10   ar
    11     5     9    1
    12     5     6    2
    13     6     7    1
    14     7     8    1
    15     7    31    1
    16     8     9    2
    17    10    11   ar
    18    11    12    1
    19    11    26   ar
    20    12    13    1
    21    12    32    1
    22    13    14    1
    23    13    33    1
    24    13    34    1
    25    14    15    1
    26    14    35    1
    27    14    36    1
    28    15    16    1
    29    15    37    1
    30    15    38    1
    31    16    17   am
    32    16    39    1
    33    17    18    2
    34    17    19    1
    35    19    20    1
    36    19    40    1
    37    19    41    1
    38    20    21    1
    39    20    22   am
    40    21    42    1
    41    21    43    1
    42    21    44    1
    43    22    23    1
    44    22    24    2
    45    22    25    2
    46    23    45    1
    47    23    46    1
    48    23    47    1
@<TRIPOS>SUBSTRUCTURE
     1 ZINC001591898574        1 TEMP              0 ****  ****    0 ROOT


##########                                Name:    ZINC000474251633
##########                DOCK_Rotatable_Bonds:                   8
##########                         Heavy_Atoms:                  28
##########                    Molecular_Weight:             416.931
##########                DOCK_Rotatable_Bonds:                   8
##########                       Formal_Charge:          0.00999953
##########                     HBond_Acceptors:                   8
##########                        HBond_Donors:                   2
##########                         Heavy_Atoms:                  28
##########                          Grid_Score:          -39.312950
##########                     Grid_vdw_energy:          -38.315506
##########                      Grid_es_energy:           -0.997443
##########           Internal_energy_repulsive:            7.490123

@<TRIPOS>MOLECULE
ZINC000474251633
 49 52 1 0 0
SMALL
USER_CHARGES


@<TRIPOS>ATOM
      1 O1        -12.4331   -1.9840   52.9276 O.2     1  ZINC000474251633   -0.5300
      2 C2        -11.5632   -1.9142   53.7698 C.2     1  ZINC000474251633    0.5100
      3 C3        -11.5318   -2.9053   54.9045 C.3     1  ZINC000474251633    0.1000
      4 N4        -11.1354   -2.2226   56.1386 N.am    1  ZINC000474251633   -0.7100
      5 C5        -11.1240   -2.8946   57.3068 C.2     1  ZINC000474251633    0.5900
      6 O6        -11.4415   -4.0687   57.3363 O.2     1  ZINC000474251633   -0.5000
      7 C7        -10.7283   -2.2097   58.5438 C.2     1  ZINC000474251633   -0.2300
      8 C8        -11.5160   -1.3824   59.2411 C.2     1  ZINC000474251633    0.0400
      9 Cl9       -13.1400   -1.0156   58.7489 Cl      1  ZINC000474251633   -0.0100
     10 C10       -10.9408   -0.8309   60.3988 C.ar    1  ZINC000474251633   -0.0900
     11 C11       -11.5117    0.0657   61.3328 C.ar    1  ZINC000474251633   -0.0600
     12 C12       -10.7937    0.4954   62.4045 C.ar    1  ZINC000474251633   -0.1200
     13 C13        -9.4884    0.0632   62.6028 C.ar    1  ZINC000474251633   -0.0800
     14 C14        -8.9061   -0.8072   61.7130 C.ar    1  ZINC000474251633   -0.0900
     15 C15        -9.6246   -1.2636   60.6032 C.ar    1  ZINC000474251633   -0.1200
     16 S16        -9.1602   -2.3692   59.3151 S.3     1  ZINC000474251633    0.1700
     17 N17       -10.6212   -0.9537   53.6878 N.am    1  ZINC000474251633   -0.7200
     18 C18       -10.6518    0.0098   52.5847 C.3     1  ZINC000474251633    0.2100
     19 C19        -9.2507    0.4799   52.2894 C.2     1  ZINC000474251633    0.0500
     20 N20        -8.8820    1.7206   52.0989 N.2     1  ZINC000474251633   -0.2700
     21 N21        -7.5027    1.7347   51.8541 N.pl3   1  ZINC000474251633   -0.3600
     22 C22        -6.6862    2.9221   51.5900 C.3     1  ZINC000474251633    0.1500
     23 C23        -5.3040    2.7723   52.2584 C.3     1  ZINC000474251633   -0.1400
     24 C24        -4.3934    2.2278   51.1300 C.3     1  ZINC000474251633   -0.1300
     25 C25        -4.9027    2.9905   49.8818 C.3     1  ZINC000474251633   -0.1200
     26 C26        -6.4311    3.0608   50.0789 C.3     1  ZINC000474251633   -0.1400
     27 C27        -7.0590    0.4613   51.9046 C.2     1  ZINC000474251633    0.0600
     28 C28        -8.1189   -0.3344   52.1778 C.2     1  ZINC000474251633   -0.2600
     29 H29       -12.5223   -3.3420   55.0331 H       1  ZINC000474251633    0.1100
     30 H30       -10.8137   -3.6937   54.6787 H       1  ZINC000474251633    0.1100
     31 H31       -10.8811   -1.2868   56.1148 H       1  ZINC000474251633    0.4100
     32 H32       -12.5251    0.4116   61.1931 H       1  ZINC000474251633    0.1300
     33 H33       -11.2428    1.1801   63.1087 H       1  ZINC000474251633    0.1400
     34 H34        -8.9297    0.4126   63.4585 H       1  ZINC000474251633    0.1400
     35 H35        -7.8908   -1.1398   61.8711 H       1  ZINC000474251633    0.1400
     36 H36        -9.9233   -0.9004   54.3593 H       1  ZINC000474251633    0.4100
     37 H37       -11.0697   -0.4663   51.6978 H       1  ZINC000474251633    0.0900
     38 H38       -11.2698    0.8630   52.8644 H       1  ZINC000474251633    0.0900
     39 H39        -7.1896    3.8124   51.9670 H       1  ZINC000474251633    0.1100
     40 H40        -4.9422    3.7396   52.6074 H       1  ZINC000474251633    0.0900
     41 H41        -5.3544    2.0624   53.0840 H       1  ZINC000474251633    0.0800
     42 H42        -3.3484    2.4657   51.3284 H       1  ZINC000474251633    0.0800
     43 H43        -4.5297    1.1533   51.0083 H       1  ZINC000474251633    0.0700
     44 H44        -4.4760    3.9929   49.8469 H       1  ZINC000474251633    0.0700
     45 H45        -4.6602    2.4398   48.9730 H       1  ZINC000474251633    0.0700
     46 H46        -6.9147    2.2447   49.5422 H       1  ZINC000474251633    0.0700
     47 H47        -6.8099    4.0187   49.7227 H       1  ZINC000474251633    0.0800
     48 H48        -6.0396    0.1359   51.7577 H       1  ZINC000474251633    0.1700
     49 H49        -8.0961   -1.4088   52.2845 H       1  ZINC000474251633    0.1500
@<TRIPOS>BOND
     1     1     2    2
     2     2     3    1
     3     2    17   am
     4     3     4    1
     5     3    29    1
     6     3    30    1
     7     4     5   am
     8     4    31    1
     9     5     6    2
    10     5     7    1
    11     7    16    1
    12     7     8    2
    13     8     9    1
    14     8    10    1
    15    10    15   ar
    16    10    11   ar
    17    11    12   ar
    18    11    32    1
    19    12    13   ar
    20    12    33    1
    21    13    14   ar
    22    13    34    1
    23    14    15   ar
    24    14    35    1
    25    15    16    1
    26    17    18    1
    27    17    36    1
    28    18    19    1
    29    18    37    1
    30    18    38    1
    31    19    28    1
    32    19    20    2
    33    20    21    1
    34    21    22    1
    35    21    27    1
    36    22    26    1
    37    22    23    1
    38    22    39    1
    39    23    24    1
    40    23    40    1
    41    23    41    1
    42    24    25    1
    43    24    42    1
    44    24    43    1
    45    25    26    1
    46    25    44    1
    47    25    45    1
    48    26    46    1
    49    26    47    1
    50    27    28    2
    51    27    48    1
    52    28    49    1
@<TRIPOS>SUBSTRUCTURE
     1 ZINC000474251633        1 TEMP              0 ****  ****    0 ROOT


##########                                Name:    ZINC000027473870
##########                DOCK_Rotatable_Bonds:                  10
##########                         Heavy_Atoms:                  31
##########                    Molecular_Weight:             422.502
##########                DOCK_Rotatable_Bonds:                  10
##########                       Formal_Charge:        -7.45058e-08
##########                     HBond_Acceptors:                   7
##########                        HBond_Donors:                   1
##########                         Heavy_Atoms:                  31
##########                          Grid_Score:          -39.170502
##########                     Grid_vdw_energy:          -38.752281
##########                      Grid_es_energy:           -0.418219
##########           Internal_energy_repulsive:           20.554279

@<TRIPOS>MOLECULE
ZINC000027473870
 58 60 1 0 0
SMALL
USER_CHARGES


@<TRIPOS>ATOM
      1 C1         -8.6393    1.3164   58.0957 C.3     1  ZINC000027473870   -0.1400
      2 C2        -10.1560    1.3700   58.2893 C.3     1  ZINC000027473870   -0.0800
      3 C3        -10.6909   -0.0290   58.4557 C.2     1  ZINC000027473870    0.1700
      4 C4        -11.2975   -0.7939   57.4793 C.2     1  ZINC000027473870   -0.2900
      5 C5        -11.5421   -0.3951   56.0814 C.2     1  ZINC000027473870    0.6000
      6 O6        -12.6637   -0.0908   55.7233 O.2     1  ZINC000027473870   -0.5400
      7 N7        -10.5227   -0.3675   55.2002 N.am    1  ZINC000027473870   -0.7200
      8 C8        -10.7655    0.0306   53.8114 C.3     1  ZINC000027473870    0.1600
      9 C9         -9.4553    0.3750   53.1512 C.ar    1  ZINC000027473870   -0.0900
     10 C10        -8.9989   -0.3845   52.0885 C.ar    1  ZINC000027473870   -0.1100
     11 C11        -7.8001   -0.0750   51.4800 C.ar    1  ZINC000027473870   -0.1100
     12 C12        -7.0474    1.0073   51.9385 C.ar    1  ZINC000027473870   -0.1200
     13 C13        -5.7619    1.3452   51.2909 C.2     1  ZINC000027473870    0.5600
     14 O14        -4.7258    0.8688   51.7115 O.2     1  ZINC000027473870   -0.5300
     15 N15        -5.7390    2.1814   50.2341 N.am    1  ZINC000027473870   -0.6100
     16 C16        -6.9878    2.7554   49.7271 C.3     1  ZINC000027473870    0.1100
     17 C17        -7.2655    4.0811   50.4388 C.3     1  ZINC000027473870   -0.1700
     18 C18        -4.4652    2.5161   49.5924 C.3     1  ZINC000027473870    0.0900
     19 C19        -3.8676    3.7557   50.2610 C.3     1  ZINC000027473870   -0.1800
     20 C20        -7.5137    1.7697   53.0107 C.ar    1  ZINC000027473870   -0.0700
     21 C21        -8.7167    1.4526   53.6069 C.ar    1  ZINC000027473870   -0.1000
     22 C22       -11.6397   -2.0310   58.0706 C.2     1  ZINC000027473870    0.0900
     23 N23       -11.2601   -2.0016   59.3187 N.2     1  ZINC000027473870   -0.2800
     24 N24       -10.6601   -0.7650   59.5813 N.pl3   1  ZINC000027473870   -0.3100
     25 C25       -10.1260   -0.3581   60.8122 C.ar    1  ZINC000027473870    0.1300
     26 C26       -10.6658    0.7348   61.4769 C.ar    1  ZINC000027473870   -0.0900
     27 C27       -10.1386    1.1338   62.6894 C.ar    1  ZINC000027473870   -0.1300
     28 C28        -9.0723    0.4446   63.2423 C.ar    1  ZINC000027473870    0.1100
     29 F29        -8.5581    0.8361   64.4287 F       1  ZINC000027473870   -0.1300
     30 C30        -8.5325   -0.6458   62.5807 C.ar    1  ZINC000027473870   -0.1400
     31 C31        -9.0603   -1.0510   61.3705 C.ar    1  ZINC000027473870   -0.0700
     32 H32        -8.2639    2.3184   57.8880 H       1  ZINC000027473870    0.0700
     33 H33        -8.1706    0.9334   59.0021 H       1  ZINC000027473870    0.0700
     34 H34        -8.4029    0.6592   57.2588 H       1  ZINC000027473870    0.0500
     35 H35       -10.3883    1.9560   59.1786 H       1  ZINC000027473870    0.1200
     36 H36       -10.6174    1.8342   57.4176 H       1  ZINC000027473870    0.0800
     37 H37        -9.6282   -0.6113   55.4855 H       1  ZINC000027473870    0.4000
     38 H38       -11.2375   -0.7922   53.2747 H       1  ZINC000027473870    0.0800
     39 H39       -11.4217    0.9007   53.7923 H       1  ZINC000027473870    0.0800
     40 H40        -9.5823   -1.2217   51.7348 H       1  ZINC000027473870    0.1300
     41 H41        -7.4446   -0.6690   50.6511 H       1  ZINC000027473870    0.1500
     42 H42        -6.8983    2.9305   48.6549 H       1  ZINC000027473870    0.0800
     43 H43        -7.8085    2.0632   49.9150 H       1  ZINC000027473870    0.0800
     44 H44        -8.1946    4.5083   50.0615 H       1  ZINC000027473870    0.0700
     45 H45        -7.3550    3.9061   51.5109 H       1  ZINC000027473870    0.0600
     46 H46        -6.4447    4.7733   50.2508 H       1  ZINC000027473870    0.0600
     47 H47        -3.7750    1.6789   49.6963 H       1  ZINC000027473870    0.0800
     48 H48        -4.6334    2.7192   48.5347 H       1  ZINC000027473870    0.0900
     49 H49        -3.0693    4.1563   49.6362 H       1  ZINC000027473870    0.0700
     50 H50        -4.6438    4.5104   50.3871 H       1  ZINC000027473870    0.0700
     51 H51        -3.4637    3.4835   51.2362 H       1  ZINC000027473870    0.0600
     52 H52        -6.9358    2.6082   53.3704 H       1  ZINC000027473870    0.1300
     53 H53        -9.0789    2.0418   54.4363 H       1  ZINC000027473870    0.1300
     54 H54       -12.1303   -2.8564   57.5761 H       1  ZINC000027473870    0.1900
     55 H55       -11.4972    1.2728   61.0459 H       1  ZINC000027473870    0.1500
     56 H56       -10.5581    1.9841   63.2066 H       1  ZINC000027473870    0.1500
     57 H57        -7.7007   -1.1818   63.0133 H       1  ZINC000027473870    0.1500
     58 H58        -8.6393   -1.9016   60.8551 H       1  ZINC000027473870    0.1400
@<TRIPOS>BOND
     1     1     2    1
     2     1    32    1
     3     1    33    1
     4     1    34    1
     5     2     3    1
     6     2    35    1
     7     2    36    1
     8     3    24    1
     9     3     4    2
    10     4     5    1
    11     4    22    1
    12     5     6    2
    13     5     7   am
    14     7     8    1
    15     7    37    1
    16     8     9    1
    17     8    38    1
    18     8    39    1
    19     9    21   ar
    20     9    10   ar
    21    10    11   ar
    22    10    40    1
    23    11    12   ar
    24    11    41    1
    25    12    13    1
    26    12    20   ar
    27    13    14    2
    28    13    15   am
    29    15    16    1
    30    15    18    1
    31    16    17    1
    32    16    42    1
    33    16    43    1
    34    17    44    1
    35    17    45    1
    36    17    46    1
    37    18    19    1
    38    18    47    1
    39    18    48    1
    40    19    49    1
    41    19    50    1
    42    19    51    1
    43    20    21   ar
    44    20    52    1
    45    21    53    1
    46    22    23    2
    47    22    54    1
    48    23    24    1
    49    24    25    1
    50    25    31   ar
    51    25    26   ar
    52    26    27   ar
    53    26    55    1
    54    27    28   ar
    55    27    56    1
    56    28    29    1
    57    28    30   ar
    58    30    31   ar
    59    30    57    1
    60    31    58    1
@<TRIPOS>SUBSTRUCTURE
     1 ZINC000027473870        1 TEMP              0 ****  ****    0 ROOT


##########                                Name:    ZINC000508765459
##########                DOCK_Rotatable_Bonds:                  10
##########                         Heavy_Atoms:                  29
##########                    Molecular_Weight:               405.5
##########                DOCK_Rotatable_Bonds:                  10
##########                       Formal_Charge:         -6.4075e-07
##########                     HBond_Acceptors:                  10
##########                        HBond_Donors:                   1
##########                         Heavy_Atoms:                  29
##########                          Grid_Score:          -38.868851
##########                     Grid_vdw_energy:          -38.689224
##########                      Grid_es_energy:           -0.179626
##########           Internal_energy_repulsive:           16.618231

@<TRIPOS>MOLECULE
ZINC000508765459
 60 62 1 0 0
SMALL
USER_CHARGES


@<TRIPOS>ATOM
      1 C1         -9.8769   -2.3427   59.2875 C.3     1  ZINC000508765459    0.0300
      2 O2        -10.4882   -2.0470   58.0301 O.3     1  ZINC000508765459   -0.3900
      3 C3        -11.0028   -3.1937   57.3502 C.3     1  ZINC000508765459    0.0500
      4 C4        -12.1884   -2.7792   56.4765 C.3     1  ZINC000508765459    0.1100
      5 N5        -11.6989   -2.0572   55.2996 N.am    1  ZINC000508765459   -0.5900
      6 C6        -11.2598   -2.8451   54.1560 C.3     1  ZINC000508765459    0.1000
      7 C7        -11.3006   -2.0106   52.8743 C.3     1  ZINC000508765459    0.1200
      8 N8        -10.6715   -0.7086   53.1533 N.am    1  ZINC000508765459   -0.6400
      9 C9         -9.5661   -0.3084   52.4943 C.2     1  ZINC000508765459    0.7100
     10 O10        -9.0689   -1.0268   51.6487 O.2     1  ZINC000508765459   -0.5800
     11 N11        -9.0119    0.8882   52.7726 N.am    1  ZINC000508765459   -0.7400
     12 C12        -7.8112    1.3241   52.0550 C.3     1  ZINC000508765459    0.1400
     13 C13        -7.7695    2.8529   52.0122 C.3     1  ZINC000508765459   -0.1400
     14 C14        -6.8498    3.3064   50.8767 C.3     1  ZINC000508765459    0.0600
     15 N15        -5.4594    2.9676   51.2078 N.3     1  ZINC000508765459   -0.5400
     16 C16        -4.8131    4.0600   51.9485 C.3     1  ZINC000508765459    0.0500
     17 C17        -3.3960    3.6370   52.3428 C.3     1  ZINC000508765459    0.0700
     18 N18        -2.6331    3.3017   51.1323 N.3     1  ZINC000508765459   -0.4600
     19 C19        -1.3230    2.9823   51.4443 C.ar    1  ZINC000508765459    0.4900
     20 N20        -0.6071    2.2745   50.5831 N.ar    1  ZINC000508765459   -0.5500
     21 C21         0.6478    1.9527   50.8503 C.ar    1  ZINC000508765459    0.1700
     22 C22         1.2111    2.3653   52.0476 C.ar    1  ZINC000508765459   -0.2600
     23 C23         0.4341    3.1043   52.9258 C.ar    1  ZINC000508765459    0.1700
     24 N24        -0.8130    3.3963   52.5950 N.ar    1  ZINC000508765459   -0.5300
     25 C25        -3.2794    2.2093   50.3916 C.3     1  ZINC000508765459    0.0700
     26 C26        -4.6964    2.6323   49.9974 C.3     1  ZINC000508765459    0.0600
     27 C27       -11.2987    0.1371   54.1797 C.3     1  ZINC000508765459    0.1000
     28 C28       -11.6917   -0.7242   55.3484 C.2     1  ZINC000508765459    0.5100
     29 O29       -12.0086   -0.1821   56.3860 O.2     1  ZINC000508765459   -0.5400
     30 H30        -9.0423   -3.0268   59.1338 H       1  ZINC000508765459    0.0400
     31 H31        -9.5121   -1.4205   59.7399 H       1  ZINC000508765459    0.0900
     32 H32       -10.6098   -2.8062   59.9478 H       1  ZINC000508765459    0.0400
     33 H33       -10.2225   -3.6247   56.7229 H       1  ZINC000508765459    0.0500
     34 H34       -11.3309   -3.9327   58.0812 H       1  ZINC000508765459    0.0600
     35 H35       -12.7328   -3.6679   56.1572 H       1  ZINC000508765459    0.1100
     36 H36       -12.8531   -2.1322   57.0492 H       1  ZINC000508765459    0.0900
     37 H37       -10.2399   -3.1892   54.3278 H       1  ZINC000508765459    0.0700
     38 H38       -11.9149   -3.7089   54.0427 H       1  ZINC000508765459    0.1000
     39 H39       -10.7512   -2.5229   52.0844 H       1  ZINC000508765459    0.1200
     40 H40       -12.3352   -1.8607   52.5659 H       1  ZINC000508765459    0.0800
     41 H41        -9.4078    1.4608   53.4480 H       1  ZINC000508765459    0.4000
     42 H42        -6.9253    0.9506   52.5685 H       1  ZINC000508765459    0.0700
     43 H43        -7.8338    0.9326   51.0379 H       1  ZINC000508765459    0.0700
     44 H44        -8.7745    3.2392   51.8422 H       1  ZINC000508765459    0.0700
     45 H45        -7.3899    3.2326   52.9608 H       1  ZINC000508765459    0.0800
     46 H46        -7.1366    2.8028   49.9536 H       1  ZINC000508765459    0.0800
     47 H47        -6.9395    4.3848   50.7453 H       1  ZINC000508765459    0.0400
     48 H48        -4.7655    4.9482   51.3184 H       1  ZINC000508765459    0.0500
     49 H49        -5.3897    4.2813   52.8466 H       1  ZINC000508765459    0.0900
     50 H50        -2.9045    4.4565   52.8670 H       1  ZINC000508765459    0.0900
     51 H51        -3.4449    2.7650   52.9949 H       1  ZINC000508765459    0.0600
     52 H52         1.2262    1.3753   50.1444 H       1  ZINC000508765459    0.1700
     53 H53         2.2335    2.1161   52.2912 H       1  ZINC000508765459    0.1500
     54 H54         0.8429    3.4408   53.8671 H       1  ZINC000508765459    0.1700
     55 H55        -2.7028    1.9879   49.4934 H       1  ZINC000508765459    0.1000
     56 H56        -3.3270    1.3211   51.0217 H       1  ZINC000508765459    0.0500
     57 H57        -5.1879    1.8127   49.4732 H       1  ZINC000508765459    0.0900
     58 H58        -4.6475    3.5042   49.3452 H       1  ZINC000508765459    0.0500
     59 H59       -10.5917    0.8999   54.5062 H       1  ZINC000508765459    0.1100
     60 H60       -12.1877    0.6137   53.7667 H       1  ZINC000508765459    0.1100
@<TRIPOS>BOND
     1     1     2    1
     2     1    30    1
     3     1    31    1
     4     1    32    1
     5     2     3    1
     6     3     4    1
     7     3    33    1
     8     3    34    1
     9     4     5    1
    10     4    35    1
    11     4    36    1
    12     5    28   am
    13     5     6    1
    14     6     7    1
    15     6    37    1
    16     6    38    1
    17     7     8    1
    18     7    39    1
    19     7    40    1
    20     8     9   am
    21     8    27    1
    22     9    10    2
    23     9    11   am
    24    11    12    1
    25    11    41    1
    26    12    13    1
    27    12    42    1
    28    12    43    1
    29    13    14    1
    30    13    44    1
    31    13    45    1
    32    14    15    1
    33    14    46    1
    34    14    47    1
    35    15    26    1
    36    15    16    1
    37    16    17    1
    38    16    48    1
    39    16    49    1
    40    17    18    1
    41    17    50    1
    42    17    51    1
    43    18    19    1
    44    18    25    1
    45    19    24   ar
    46    19    20   ar
    47    20    21   ar
    48    21    22   ar
    49    21    52    1
    50    22    23   ar
    51    22    53    1
    52    23    24   ar
    53    23    54    1
    54    25    26    1
    55    25    55    1
    56    25    56    1
    57    26    57    1
    58    26    58    1
    59    27    28    1
    60    27    59    1
    61    27    60    1
    62    28    29    2
@<TRIPOS>SUBSTRUCTURE
     1 ZINC000508765459        1 TEMP              0 ****  ****    0 ROOT


##########                                Name:    ZINC000552360217
##########                DOCK_Rotatable_Bonds:                  13
##########                         Heavy_Atoms:                  27
##########                    Molecular_Weight:             401.484
##########                DOCK_Rotatable_Bonds:                  13
##########                       Formal_Charge:          -0.0100002
##########                     HBond_Acceptors:                  10
##########                        HBond_Donors:                   3
##########                         Heavy_Atoms:                  27
##########                          Grid_Score:          -38.756794
##########                     Grid_vdw_energy:          -36.671822
##########                      Grid_es_energy:           -2.084973
##########           Internal_energy_repulsive:           16.215612

@<TRIPOS>MOLECULE
ZINC000552360217
 54 54 1 0 0
SMALL
USER_CHARGES


@<TRIPOS>ATOM
      1 C1         -6.9123   -0.0518   51.6506 C.3     1  ZINC000552360217    0.0800
      2 N2         -7.4995    1.2828   51.7934 N.am    1  ZINC000552360217   -1.0000
      3 C3         -8.6812    1.4767   52.6373 C.3     1  ZINC000552360217    0.0900
      4 S4         -6.8274    2.5722   51.0008 S.o2    1  ZINC000552360217    2.7000
      5 O5         -6.7478    2.2039   49.6307 O.2     1  ZINC000552360217   -0.9500
      6 O6         -7.5182    3.7275   51.4562 O.2     1  ZINC000552360217   -0.9500
      7 C7         -5.1677    2.7277   51.5715 C.ar    1  ZINC000552360217   -0.6900
      8 C8         -4.1154    2.5334   50.6949 C.ar    1  ZINC000552360217    0.0100
      9 C9         -2.8089    2.6541   51.1349 C.ar    1  ZINC000552360217   -0.1400
     10 C10        -2.5479    2.9691   52.4522 C.ar    1  ZINC000552360217   -0.0300
     11 C11        -3.6052    3.1664   53.3420 C.ar    1  ZINC000552360217   -0.1600
     12 C12        -3.3329    3.5048   54.7552 C.2     1  ZINC000552360217    0.5600
     13 O13        -2.5036    4.3504   55.0289 O.2     1  ZINC000552360217   -0.5300
     14 N14        -4.0040    2.8757   55.7402 N.am    1  ZINC000552360217   -0.7100
     15 C15        -3.7354    3.2122   57.1405 C.3     1  ZINC000552360217    0.1000
     16 C16        -2.7491    2.2274   57.7136 C.2     1  ZINC000552360217    0.5100
     17 O17        -2.4753    1.2172   57.1009 O.2     1  ZINC000552360217   -0.5400
     18 N18        -2.1716    2.4691   58.9071 N.am    1  ZINC000552360217   -0.7200
     19 C19        -1.2115    1.5125   59.4635 C.3     1  ZINC000552360217    0.1400
     20 C20        -0.4195    2.1810   60.5890 C.3     1  ZINC000552360217    0.1000
     21 C21         0.1803    3.4935   60.0805 C.3     1  ZINC000552360217   -0.1800
     22 C22        -1.3519    2.4690   61.7673 C.3     1  ZINC000552360217   -0.1800
     23 O23         0.6309    1.3105   61.0143 O.3     1  ZINC000552360217   -0.3700
     24 C24         0.1751    0.1336   61.6844 C.3     1  ZINC000552360217    0.0600
     25 C25         1.3473   -0.8310   61.8753 C.3     1  ZINC000552360217    0.0800
     26 O26         0.8772   -2.0382   62.4786 O.3     1  ZINC000552360217   -0.5700
     27 C27        -4.9205    3.0484   52.8906 C.ar    1  ZINC000552360217    0.0400
     28 H28        -7.3740   -0.5635   50.8062 H       1  ZINC000552360217    0.0600
     29 H29        -5.8399    0.0397   51.4778 H       1  ZINC000552360217    0.0900
     30 H30        -7.0860   -0.6245   52.5616 H       1  ZINC000552360217    0.0800
     31 H31        -8.9773    0.5223   53.0727 H       1  ZINC000552360217    0.0800
     32 H32        -8.4468    2.1824   53.4342 H       1  ZINC000552360217    0.0700
     33 H33        -9.4988    1.8695   52.0329 H       1  ZINC000552360217    0.0600
     34 H34        -4.3143    2.2863   49.6625 H       1  ZINC000552360217    0.1500
     35 H35        -1.9919    2.5008   50.4454 H       1  ZINC000552360217    0.1400
     36 H36        -1.5279    3.0627   52.7944 H       1  ZINC000552360217    0.1400
     37 H37        -4.6650    2.2000   55.5220 H       1  ZINC000552360217    0.4100
     38 H38        -3.3200    4.2183   57.1992 H       1  ZINC000552360217    0.1000
     39 H39        -4.6643    3.1689   57.7092 H       1  ZINC000552360217    0.1000
     40 H40        -2.3916    3.2764   59.3977 H       1  ZINC000552360217    0.4100
     41 H41        -1.7465    0.6490   59.8588 H       1  ZINC000552360217    0.0800
     42 H42        -0.5264    1.1881   58.6801 H       1  ZINC000552360217    0.0900
     43 H43        -0.6209    4.1574   59.7562 H       1  ZINC000552360217    0.0700
     44 H44         0.7446    3.9697   60.8824 H       1  ZINC000552360217    0.0700
     45 H45         0.8445    3.2884   59.2410 H       1  ZINC000552360217    0.0700
     46 H46        -1.7791    1.5339   62.1296 H       1  ZINC000552360217    0.0600
     47 H47        -0.7876    2.9452   62.5692 H       1  ZINC000552360217    0.0700
     48 H48        -2.1530    3.1329   61.4429 H       1  ZINC000552360217    0.0700
     49 H49        -0.2344    0.4049   62.6574 H       1  ZINC000552360217    0.0600
     50 H50        -0.5984   -0.3485   61.0863 H       1  ZINC000552360217    0.0700
     51 H51         1.7922   -1.0583   60.9066 H       1  ZINC000552360217    0.0600
     52 H52         2.0957   -0.3702   62.5198 H       1  ZINC000552360217    0.0500
     53 H53         0.4071   -1.9037   63.3128 H       1  ZINC000552360217    0.3800
     54 H54        -5.7429    3.1998   53.5740 H       1  ZINC000552360217    0.1500
@<TRIPOS>BOND
     1     1     2    1
     2     1    28    1
     3     1    29    1
     4     1    30    1
     5     2     3    1
     6     2     4   am
     7     3    31    1
     8     3    32    1
     9     3    33    1
    10     4     5    2
    11     4     6    2
    12     4     7    1
    13     7    27   ar
    14     7     8   ar
    15     8     9   ar
    16     8    34    1
    17     9    10   ar
    18     9    35    1
    19    10    11   ar
    20    10    36    1
    21    11    12    1
    22    11    27   ar
    23    12    13    2
    24    12    14   am
    25    14    15    1
    26    14    37    1
    27    15    16    1
    28    15    38    1
    29    15    39    1
    30    16    17    2
    31    16    18   am
    32    18    19    1
    33    18    40    1
    34    19    20    1
    35    19    41    1
    36    19    42    1
    37    20    21    1
    38    20    22    1
    39    20    23    1
    40    21    43    1
    41    21    44    1
    42    21    45    1
    43    22    46    1
    44    22    47    1
    45    22    48    1
    46    23    24    1
    47    24    25    1
    48    24    49    1
    49    24    50    1
    50    25    26    1
    51    25    51    1
    52    25    52    1
    53    26    53    1
    54    27    54    1
@<TRIPOS>SUBSTRUCTURE
     1 ZINC000552360217        1 TEMP              0 ****  ****    0 ROOT


##########                                Name:    ZINC000008416770
##########                DOCK_Rotatable_Bonds:                  13
##########                         Heavy_Atoms:                  30
##########                    Molecular_Weight:             412.442
##########                DOCK_Rotatable_Bonds:                  13
##########                       Formal_Charge:          -0.0199998
##########                     HBond_Acceptors:                   8
##########                        HBond_Donors:                   2
##########                         Heavy_Atoms:                  30
##########                          Grid_Score:          -37.991749
##########                     Grid_vdw_energy:          -38.719696
##########                      Grid_es_energy:            0.727946
##########           Internal_energy_repulsive:           17.803968

@<TRIPOS>MOLECULE
ZINC000008416770
 54 55 1 0 0
SMALL
USER_CHARGES


@<TRIPOS>ATOM
      1 C1         -8.4673    0.5696   65.8492 C.3     1  ZINC000008416770   -0.1500
      2 C2         -7.9662    1.3627   64.6406 C.3     1  ZINC000008416770    0.0600
      3 O3         -8.3307    0.6662   63.4198 O.3     1  ZINC000008416770   -0.3500
      4 C4         -9.6447    0.4633   63.2003 C.2     1  ZINC000008416770    0.5100
      5 O5        -10.4683    0.9557   63.9457 O.2     1  ZINC000008416770   -0.5100
      6 C6        -10.0831   -0.3563   62.0555 C.ar    1  ZINC000008416770   -0.1500
      7 C7         -9.1403   -1.0371   61.2793 C.ar    1  ZINC000008416770   -0.0400
      8 C8         -9.5531   -1.8015   60.2117 C.ar    1  ZINC000008416770   -0.1400
      9 C9        -10.9069   -1.8973   59.9046 C.ar    1  ZINC000008416770    0.1800
     10 N10       -11.3214   -2.6726   58.8226 N.am    1  ZINC000008416770   -0.6700
     11 C11       -11.1682   -2.2116   57.5654 C.2     1  ZINC000008416770    0.5200
     12 O12       -10.6697   -1.1225   57.3754 O.2     1  ZINC000008416770   -0.5100
     13 C13       -11.6162   -3.0497   56.3958 C.3     1  ZINC000008416770   -0.1300
     14 C14       -12.3908   -2.1744   55.4083 C.3     1  ZINC000008416770   -0.1000
     15 C15       -11.7033   -2.2005   54.0676 C.2     1  ZINC000008416770    0.4700
     16 O16       -11.9997   -3.0422   53.2529 O.2     1  ZINC000008416770   -0.5100
     17 O17       -10.7615   -1.2888   53.7784 O.3     1  ZINC000008416770   -0.3300
     18 C18       -10.4399   -1.0953   52.3758 C.3     1  ZINC000008416770    0.0500
     19 C19        -9.5720    0.1273   52.2235 C.2     1  ZINC000008416770    0.5100
     20 O20       -10.0529    1.2328   52.3558 O.2     1  ZINC000008416770   -0.4900
     21 N21        -8.2613   -0.0079   51.9404 N.am    1  ZINC000008416770   -0.6700
     22 C22        -7.4553    1.1271   51.7990 C.ar    1  ZINC000008416770    0.1400
     23 C23        -6.9500    1.4708   50.5520 C.ar    1  ZINC000008416770   -0.1400
     24 C24        -6.1548    2.5918   50.4158 C.ar    1  ZINC000008416770   -0.1000
     25 C25        -5.8613    3.3714   51.5195 C.ar    1  ZINC000008416770   -0.1000
     26 C26        -4.9930    4.5937   51.3672 C.3     1  ZINC000008416770   -0.1200
     27 C27        -6.3633    3.0322   52.7624 C.ar    1  ZINC000008416770   -0.1000
     28 C28        -7.1638    1.9157   52.9043 C.ar    1  ZINC000008416770   -0.1200
     29 C29       -11.8481   -1.2215   60.6752 C.ar    1  ZINC000008416770   -0.1600
     30 C30       -11.4429   -0.4591   61.7472 C.ar    1  ZINC000008416770   -0.0300
     31 H31        -9.5517    0.4728   65.7961 H       1  ZINC000008416770    0.0700
     32 H32        -8.0134   -0.4215   65.8469 H       1  ZINC000008416770    0.0700
     33 H33        -8.1935    1.0924   66.7656 H       1  ZINC000008416770    0.0800
     34 H34        -8.4199    2.3537   64.6428 H       1  ZINC000008416770    0.0700
     35 H35        -6.8818    1.4595   64.6936 H       1  ZINC000008416770    0.0700
     36 H36        -8.0894   -0.9628   61.5169 H       1  ZINC000008416770    0.1400
     37 H37        -8.8254   -2.3274   59.6115 H       1  ZINC000008416770    0.1400
     38 H38       -11.7200   -3.5437   58.9745 H       1  ZINC000008416770    0.4200
     39 H39       -10.7446   -3.4747   55.8982 H       1  ZINC000008416770    0.1100
     40 H40       -12.2603   -3.8541   56.7508 H       1  ZINC000008416770    0.1100
     41 H41       -13.4063   -2.5564   55.3034 H       1  ZINC000008416770    0.1200
     42 H42       -12.4245   -1.1502   55.7797 H       1  ZINC000008416770    0.1200
     43 H43        -9.9061   -1.9688   52.0015 H       1  ZINC000008416770    0.1100
     44 H44       -11.3601   -0.9607   51.8073 H       1  ZINC000008416770    0.1100
     45 H45        -7.8765   -0.8921   51.8347 H       1  ZINC000008416770    0.4100
     46 H46        -7.1782    0.8619   49.6897 H       1  ZINC000008416770    0.1300
     47 H47        -5.7615    2.8596   49.4462 H       1  ZINC000008416770    0.1300
     48 H48        -5.6187    5.4591   51.1494 H       1  ZINC000008416770    0.0700
     49 H49        -4.4432    4.7663   52.2925 H       1  ZINC000008416770    0.0700
     50 H50        -4.2887    4.4395   50.5497 H       1  ZINC000008416770    0.0700
     51 H51        -6.1323    3.6432   53.6226 H       1  ZINC000008416770    0.1300
     52 H52        -7.5556    1.6513   53.8755 H       1  ZINC000008416770    0.1300
     53 H53       -12.8980   -1.2984   60.4342 H       1  ZINC000008416770    0.1400
     54 H54       -12.1739    0.0652   62.3448 H       1  ZINC000008416770    0.1400
@<TRIPOS>BOND
     1     1     2    1
     2     1    31    1
     3     1    32    1
     4     1    33    1
     5     2     3    1
     6     2    34    1
     7     2    35    1
     8     3     4    1
     9     4     5    2
    10     4     6    1
    11     6    30   ar
    12     6     7   ar
    13     7     8   ar
    14     7    36    1
    15     8     9   ar
    16     8    37    1
    17     9    10    1
    18     9    29   ar
    19    10    11   am
    20    10    38    1
    21    11    12    2
    22    11    13    1
    23    13    14    1
    24    13    39    1
    25    13    40    1
    26    14    15    1
    27    14    41    1
    28    14    42    1
    29    15    16    2
    30    15    17    1
    31    17    18    1
    32    18    19    1
    33    18    43    1
    34    18    44    1
    35    19    20    2
    36    19    21   am
    37    21    22    1
    38    21    45    1
    39    22    28   ar
    40    22    23   ar
    41    23    24   ar
    42    23    46    1
    43    24    25   ar
    44    24    47    1
    45    25    26    1
    46    25    27   ar
    47    26    48    1
    48    26    49    1
    49    26    50    1
    50    27    28   ar
    51    27    51    1
    52    28    52    1
    53    29    30   ar
    54    29    53    1
    55    30    54    1
@<TRIPOS>SUBSTRUCTURE
     1 ZINC000008416770        1 TEMP              0 ****  ****    0 ROOT


##########                                Name:    ZINC000603906271
##########                DOCK_Rotatable_Bonds:                   8
##########                         Heavy_Atoms:                  29
##########                    Molecular_Weight:             391.473
##########                DOCK_Rotatable_Bonds:                   8
##########                       Formal_Charge:           0.0499998
##########                     HBond_Acceptors:                   7
##########                        HBond_Donors:                   3
##########                         Heavy_Atoms:                  29
##########                          Grid_Score:          -37.728432
##########                     Grid_vdw_energy:          -34.813370
##########                      Grid_es_energy:           -2.915061
##########           Internal_energy_repulsive:           21.774300

@<TRIPOS>MOLECULE
ZINC000603906271
 54 56 1 0 0
SMALL
USER_CHARGES


@<TRIPOS>ATOM
      1 C1        -13.1398   -0.1203   51.8199 C.3     1  ZINC000603906271   -0.1600
      2 C2        -11.9034   -0.7366   52.4773 C.3     1  ZINC000603906271    0.1300
      3 H3        -11.6941   -1.7046   52.0220 H       1  ZINC000603906271    0.1200
      4 N4        -10.7543    0.1519   52.2855 N.am    1  ZINC000603906271   -0.7100
      5 C5         -9.5082   -0.3592   52.2355 C.2     1  ZINC000603906271    0.5700
      6 O6         -9.3376   -1.5571   52.3512 O.2     1  ZINC000603906271   -0.5300
      7 C7         -8.3489    0.5372   52.0402 C.ar    1  ZINC000603906271   -0.1400
      8 C8         -7.0678    0.0036   51.8913 C.ar    1  ZINC000603906271   -0.0800
      9 C9         -5.9902    0.8455   51.7089 C.ar    1  ZINC000603906271   -0.1200
     10 C10        -6.1772    2.2160   51.6741 C.ar    1  ZINC000603906271   -0.0400
     11 C11        -4.9954    3.1295   51.4751 C.3     1  ZINC000603906271   -0.0400
     12 C12        -4.2586    3.3071   52.8041 C.3     1  ZINC000603906271   -0.1400
     13 C13        -4.0458    2.5175   50.4433 C.3     1  ZINC000603906271   -0.1500
     14 C14        -5.4818    4.4915   50.9757 C.3     1  ZINC000603906271   -0.1400
     15 C15        -7.4446    2.7513   51.8207 C.ar    1  ZINC000603906271   -0.1300
     16 C16        -8.5313    1.9202   51.9984 C.ar    1  ZINC000603906271   -0.0500
     17 C17       -12.1567   -0.9192   53.9516 C.2     1  ZINC000603906271    0.5100
     18 O18       -12.2766    0.0500   54.6709 O.2     1  ZINC000603906271   -0.5100
     19 N19       -12.2498   -2.1594   54.4708 N.am    1  ZINC000603906271   -0.6700
     20 C20       -12.4850   -2.3289   55.8398 C.ar    1  ZINC000603906271    0.1300
     21 C21       -13.7275   -2.7653   56.2825 C.ar    1  ZINC000603906271   -0.1200
     22 C22       -13.9635   -2.9339   57.6340 C.ar    1  ZINC000603906271   -0.1000
     23 C23       -12.9664   -2.6693   58.5512 C.ar    1  ZINC000603906271   -0.0900
     24 C24       -11.7170   -2.2306   58.1159 C.ar    1  ZINC000603906271    0.0000
     25 C25       -10.6441   -1.9451   59.1008 C.2     1  ZINC000603906271    0.2700
     26 N26        -9.3909   -2.3310   59.0024 N.2     1  ZINC000603906271   -0.3000
     27 N27        -8.7289   -1.8480   60.1429 N.pl3   1  ZINC000603906271   -0.4800
     28 C28        -9.6494   -1.1882   60.8687 C.2     1  ZINC000603906271    0.2700
     29 N29       -10.7906   -1.2467   60.2348 N.2     1  ZINC000603906271   -0.5300
     30 C30       -11.4762   -2.0669   56.7548 C.ar    1  ZINC000603906271   -0.0800
     31 H31       -13.3491    0.8476   52.2752 H       1  ZINC000603906271    0.0700
     32 H32       -12.9567    0.0117   50.7535 H       1  ZINC000603906271    0.0800
     33 H33       -13.9947   -0.7814   51.9626 H       1  ZINC000603906271    0.0700
     34 H34       -10.8905    1.1080   52.1945 H       1  ZINC000603906271    0.4100
     35 H35        -6.9203   -1.0659   51.9189 H       1  ZINC000603906271    0.1300
     36 H36        -4.9983    0.4340   51.5935 H       1  ZINC000603906271    0.1300
     37 H37        -3.9120    2.3369   53.1599 H       1  ZINC000603906271    0.0600
     38 H38        -3.4037    3.9680   52.6602 H       1  ZINC000603906271    0.0600
     39 H39        -4.9351    3.7432   53.5392 H       1  ZINC000603906271    0.0600
     40 H40        -4.5706    2.3910   49.4964 H       1  ZINC000603906271    0.0600
     41 H41        -3.1909    3.1783   50.2994 H       1  ZINC000603906271    0.0600
     42 H42        -3.6992    1.5473   50.7991 H       1  ZINC000603906271    0.0600
     43 H43        -6.1584    4.9274   51.7108 H       1  ZINC000603906271    0.0600
     44 H44        -4.6271    5.1522   50.8317 H       1  ZINC000603906271    0.0600
     45 H45        -6.0068    4.3650   50.0288 H       1  ZINC000603906271    0.0600
     46 H46        -7.5839    3.8219   51.7922 H       1  ZINC000603906271    0.1400
     47 H47        -9.5202    2.3394   52.1123 H       1  ZINC000603906271    0.1400
     48 H48       -12.1539   -2.9345   53.8955 H       1  ZINC000603906271    0.4200
     49 H49       -14.5110   -2.9731   55.5690 H       1  ZINC000603906271    0.1300
     50 H50       -14.9310   -3.2734   57.9733 H       1  ZINC000603906271    0.1400
     51 H51       -13.1545   -2.8017   59.6064 H       1  ZINC000603906271    0.1400
     52 H52        -7.7919   -1.9671   60.3639 H       1  ZINC000603906271    0.4400
     53 H53        -9.4743   -0.6912   61.8115 H       1  ZINC000603906271    0.2300
     54 H54       -10.5098   -1.7272   56.4127 H       1  ZINC000603906271    0.1500
@<TRIPOS>BOND
     1     1     2    1
     2     1    31    1
     3     1    32    1
     4     1    33    1
     5     2     3    1
     6     2     4    1
     7     2    17    1
     8     4     5   am
     9     4    34    1
    10     5     6    2
    11     5     7    1
    12     7    16   ar
    13     7     8   ar
    14     8     9   ar
    15     8    35    1
    16     9    10   ar
    17     9    36    1
    18    10    11    1
    19    10    15   ar
    20    11    12    1
    21    11    13    1
    22    11    14    1
    23    12    37    1
    24    12    38    1
    25    12    39    1
    26    13    40    1
    27    13    41    1
    28    13    42    1
    29    14    43    1
    30    14    44    1
    31    14    45    1
    32    15    16   ar
    33    15    46    1
    34    16    47    1
    35    17    18    2
    36    17    19   am
    37    19    20    1
    38    19    48    1
    39    20    30   ar
    40    20    21   ar
    41    21    22   ar
    42    21    49    1
    43    22    23   ar
    44    22    50    1
    45    23    24   ar
    46    23    51    1
    47    24    25    1
    48    24    30   ar
    49    25    29    1
    50    25    26    2
    51    26    27    1
    52    27    28    1
    53    27    52    1
    54    28    29    2
    55    28    53    1
    56    30    54    1
@<TRIPOS>SUBSTRUCTURE
     1 ZINC000603906271        1 TEMP              0 ****  ****    0 ROOT


##########                                Name:    ZINC000621594459
##########                DOCK_Rotatable_Bonds:                  10
##########                         Heavy_Atoms:                  25
##########                    Molecular_Weight:             389.497
##########                DOCK_Rotatable_Bonds:                  10
##########                       Formal_Charge:         -7.7486e-07
##########                     HBond_Acceptors:                  10
##########                        HBond_Donors:                   3
##########                         Heavy_Atoms:                  25
##########                          Grid_Score:          -37.626629
##########                     Grid_vdw_energy:          -37.919571
##########                      Grid_es_energy:            0.292944
##########           Internal_energy_repulsive:           18.992912

@<TRIPOS>MOLECULE
ZINC000621594459
 48 49 1 0 0
SMALL
USER_CHARGES


@<TRIPOS>ATOM
      1 C1         -1.7140    5.1250   51.5784 C.3     1  ZINC000621594459   -0.1600
      2 C2         -2.2845    4.1335   50.5622 C.3     1  ZINC000621594459    0.1300
      3 C3         -1.6715    2.7517   50.7983 C.3     1  ZINC000621594459   -0.1800
      4 N4         -3.7390    4.0558   50.7192 N.am    1  ZINC000621594459   -1.1100
      5 S5         -4.5484    2.6835   50.2680 S.o2    1  ZINC000621594459    2.6200
      6 O6         -4.3441    2.6017   48.8641 O.2     1  ZINC000621594459   -0.9500
      7 O7         -4.0491    1.6793   51.1406 O.2     1  ZINC000621594459   -0.9400
      8 C8         -6.2877    3.0414   50.6385 C.3     1  ZINC000621594459   -0.6600
      9 C9         -7.1409    1.8125   50.3173 C.3     1  ZINC000621594459    0.1300
     10 N10        -8.1424    1.6248   51.3698 N.am    1  ZINC000621594459   -0.7200
     11 C11        -8.0857    0.5404   52.1682 C.2     1  ZINC000621594459    0.5600
     12 O12        -7.2028   -0.2810   52.0160 O.2     1  ZINC000621594459   -0.5200
     13 C13        -9.0975    0.3500   53.2294 C.ar    1  ZINC000621594459   -0.1500
     14 C14        -9.1471    1.2250   54.3154 C.ar    1  ZINC000621594459   -0.0300
     15 C15       -10.0941    1.0421   55.3021 C.ar    1  ZINC000621594459   -0.1400
     16 C16       -10.9929   -0.0062   55.2166 C.ar    1  ZINC000621594459    0.0100
     17 C17       -10.9487   -0.8776   54.1427 C.ar    1  ZINC000621594459   -0.6800
     18 S18       -12.0976   -2.2099   54.0439 S.o2    1  ZINC000621594459    2.7000
     19 O19       -13.3511   -1.6344   53.7020 O.2     1  ZINC000621594459   -0.9400
     20 O20       -11.4709   -3.2237   53.2701 O.2     1  ZINC000621594459   -0.9500
     21 N21       -12.2669   -2.8255   55.5719 N.am    1  ZINC000621594459   -1.0900
     22 C22       -11.1024   -3.3673   56.2765 C.3     1  ZINC000621594459    0.0800
     23 C23       -10.9027   -2.9513   57.7352 C.3     1  ZINC000621594459   -0.1800
     24 C24       -11.3616   -4.3720   57.4010 C.3     1  ZINC000621594459   -0.1900
     25 C25       -10.0110   -0.7023   53.1464 C.ar    1  ZINC000621594459    0.0400
     26 H26        -0.6318    5.1827   51.4615 H       1  ZINC000621594459    0.0700
     27 H27        -2.1508    6.1093   51.4102 H       1  ZINC000621594459    0.0700
     28 H28        -1.9531    4.7890   52.5874 H       1  ZINC000621594459    0.0600
     29 H29        -2.0454    4.4695   49.5532 H       1  ZINC000621594459    0.0900
     30 H30        -1.9106    2.4158   51.8073 H       1  ZINC000621594459    0.0700
     31 H31        -2.0780    2.0454   50.0744 H       1  ZINC000621594459    0.0600
     32 H32        -0.5893    2.8095   50.6814 H       1  ZINC000621594459    0.0700
     33 H33        -4.2279    4.8084   51.0875 H       1  ZINC000621594459    0.4200
     34 H34        -6.3906    3.2890   51.6949 H       1  ZINC000621594459    0.1400
     35 H35        -6.6221    3.8840   50.0333 H       1  ZINC000621594459    0.1400
     36 H36        -7.6423    1.9583   49.3605 H       1  ZINC000621594459    0.0900
     37 H37        -6.5020    0.9310   50.2621 H       1  ZINC000621594459    0.0900
     38 H38        -8.8462    2.2809   51.4922 H       1  ZINC000621594459    0.4000
     39 H39        -8.4457    2.0434   54.3836 H       1  ZINC000621594459    0.1300
     40 H40       -10.1337    1.7185   56.1431 H       1  ZINC000621594459    0.1400
     41 H41       -11.7319   -0.1452   55.9918 H       1  ZINC000621594459    0.1500
     42 H42       -13.1372   -2.8273   56.0004 H       1  ZINC000621594459    0.4200
     43 H43       -10.2101   -3.5126   55.6675 H       1  ZINC000621594459    0.1400
     44 H44        -9.8788   -2.8224   58.0862 H       1  ZINC000621594459    0.1100
     45 H45       -11.6378   -2.2743   58.1706 H       1  ZINC000621594459    0.1000
     46 H46       -12.3985   -4.6298   57.6165 H       1  ZINC000621594459    0.1000
     47 H47       -10.6396   -5.1780   57.5321 H       1  ZINC000621594459    0.1000
     48 H48        -9.9777   -1.3828   52.3085 H       1  ZINC000621594459    0.1600
@<TRIPOS>BOND
     1     1     2    1
     2     1    26    1
     3     1    27    1
     4     1    28    1
     5     2     3    1
     6     2     4    1
     7     2    29    1
     8     3    30    1
     9     3    31    1
    10     3    32    1
    11     4     5   am
    12     4    33    1
    13     5     6    2
    14     5     7    2
    15     5     8    1
    16     8     9    1
    17     8    34    1
    18     8    35    1
    19     9    10    1
    20     9    36    1
    21     9    37    1
    22    10    11   am
    23    10    38    1
    24    11    12    2
    25    11    13    1
    26    13    25   ar
    27    13    14   ar
    28    14    15   ar
    29    14    39    1
    30    15    16   ar
    31    15    40    1
    32    16    17   ar
    33    16    41    1
    34    17    18    1
    35    17    25   ar
    36    18    19    2
    37    18    20    2
    38    18    21   am
    39    21    22    1
    40    21    42    1
    41    22    24    1
    42    22    23    1
    43    22    43    1
    44    23    24    1
    45    23    44    1
    46    23    45    1
    47    24    46    1
    48    24    47    1
    49    25    48    1
@<TRIPOS>SUBSTRUCTURE
     1 ZINC000621594459        1 TEMP              0 ****  ****    0 ROOT


##########                                Name:    ZINC000013809319
##########                DOCK_Rotatable_Bonds:                  10
##########                         Heavy_Atoms:                  30
##########                    Molecular_Weight:             407.469
##########                DOCK_Rotatable_Bonds:                  10
##########                       Formal_Charge:         -0.00999978
##########                     HBond_Acceptors:                   7
##########                        HBond_Donors:                   1
##########                         Heavy_Atoms:                  30
##########                          Grid_Score:          -37.535858
##########                     Grid_vdw_energy:          -37.237850
##########                      Grid_es_energy:           -0.298009
##########           Internal_energy_repulsive:           18.604237

@<TRIPOS>MOLECULE
ZINC000013809319
 55 57 1 0 0
SMALL
USER_CHARGES


@<TRIPOS>ATOM
      1 C1         -4.6367    4.1435   51.4889 C.3     1  ZINC000013809319   -0.1500
      2 C2         -4.1146    3.1636   50.4361 C.3     1  ZINC000013809319    0.0500
      3 O3         -5.2184    2.5346   49.7820 O.3     1  ZINC000013809319   -0.3100
      4 C4         -6.1738    1.9855   50.5755 C.ar    1  ZINC000013809319    0.1500
      5 C5         -5.8771    0.8675   51.3449 C.ar    1  ZINC000013809319   -0.2200
      6 C6         -6.8439    0.3080   52.1516 C.ar    1  ZINC000013809319   -0.0300
      7 C7         -8.1226    0.8659   52.1952 C.ar    1  ZINC000013809319   -0.1100
      8 C8         -9.1636    0.2680   53.0609 C.2     1  ZINC000013809319    0.2300
      9 C9         -9.7457   -0.9418   52.7186 C.2     1  ZINC000013809319   -0.2900
     10 C10       -10.7301   -1.4740   53.5693 C.2     1  ZINC000013809319    0.5300
     11 O11       -11.2695   -2.5370   53.3079 O.2     1  ZINC000013809319   -0.5400
     12 N12       -11.0666   -0.7869   54.6809 N.am    1  ZINC000013809319   -0.5100
     13 C13       -12.0891   -1.3190   55.5851 C.3     1  ZINC000013809319    0.0700
     14 C14       -11.4328   -2.1761   56.6367 C.2     1  ZINC000013809319    0.5000
     15 O15       -10.8644   -3.1988   56.3175 O.2     1  ZINC000013809319   -0.5200
     16 N16       -11.4775   -1.8060   57.9319 N.am    1  ZINC000013809319   -0.7200
     17 C17       -10.8379   -2.6382   58.9540 C.3     1  ZINC000013809319    0.1300
     18 C18        -9.4731   -2.0469   59.3124 C.3     1  ZINC000013809319   -0.0800
     19 C19        -9.6657   -0.7214   60.0031 C.ar    1  ZINC000013809319   -0.1200
     20 C20       -10.1814   -0.6777   61.2837 C.ar    1  ZINC000013809319   -0.0800
     21 C21       -10.3589    0.5384   61.9177 C.ar    1  ZINC000013809319   -0.1500
     22 C22       -10.0203    1.7130   61.2722 C.ar    1  ZINC000013809319   -0.0800
     23 C23        -9.5037    1.6747   59.9913 C.ar    1  ZINC000013809319   -0.2100
     24 C24        -9.3198    0.4559   59.3551 C.ar    1  ZINC000013809319    0.1300
     25 O25        -8.8119    0.4154   58.0953 O.3     1  ZINC000013809319   -0.3100
     26 C26        -8.4757    1.6660   57.4910 C.3     1  ZINC000013809319    0.0300
     27 C27       -10.4661    0.3866   54.9636 C.2     1  ZINC000013809319    0.3900
     28 N28        -9.5475    0.8921   54.1882 N.2     1  ZINC000013809319   -0.5300
     29 C29        -8.4172    1.9892   51.4208 C.ar    1  ZINC000013809319   -0.0500
     30 C30        -7.4439    2.5467   50.6205 C.ar    1  ZINC000013809319   -0.1600
     31 H31        -5.2527    4.9018   51.0056 H       1  ZINC000013809319    0.0700
     32 H32        -5.2344    3.6035   52.2231 H       1  ZINC000013809319    0.0700
     33 H33        -3.7947    4.6233   51.9879 H       1  ZINC000013809319    0.0800
     34 H34        -3.5168    3.7037   49.7018 H       1  ZINC000013809319    0.0600
     35 H35        -3.4985    2.4054   50.9193 H       1  ZINC000013809319    0.0600
     36 H36        -4.8875    0.4361   51.3104 H       1  ZINC000013809319    0.1300
     37 H37        -6.6127   -0.5615   52.7492 H       1  ZINC000013809319    0.1400
     38 H38        -9.4507   -1.4630   51.8198 H       1  ZINC000013809319    0.1600
     39 H39       -12.6146   -0.4936   56.0653 H       1  ZINC000013809319    0.1300
     40 H40       -12.7989   -1.9205   55.0172 H       1  ZINC000013809319    0.1300
     41 H41       -11.9331   -0.9886   58.1874 H       1  ZINC000013809319    0.4000
     42 H42       -11.4663   -2.6674   59.8442 H       1  ZINC000013809319    0.0700
     43 H43       -10.7060   -3.6493   58.5689 H       1  ZINC000013809319    0.0700
     44 H44        -8.9445   -2.7297   59.9775 H       1  ZINC000013809319    0.0800
     45 H45        -8.8900   -1.9014   58.4030 H       1  ZINC000013809319    0.0800
     46 H46       -10.4466   -1.5940   61.7900 H       1  ZINC000013809319    0.1300
     47 H47       -10.7629    0.5705   62.9189 H       1  ZINC000013809319    0.1300
     48 H48       -10.1602    2.6615   61.7694 H       1  ZINC000013809319    0.1300
     49 H49        -9.2397    2.5927   59.4874 H       1  ZINC000013809319    0.1300
     50 H50        -7.7214    2.1703   58.0949 H       1  ZINC000013809319    0.0600
     51 H51        -8.0823    1.4914   56.4896 H       1  ZINC000013809319    0.1000
     52 H52        -9.3671    2.2900   57.4275 H       1  ZINC000013809319    0.0600
     53 H53       -10.7506    0.9204   55.8584 H       1  ZINC000013809319    0.2000
     54 H54        -9.4055    2.4234   51.4523 H       1  ZINC000013809319    0.1400
     55 H55        -7.6710    3.4160   50.0213 H       1  ZINC000013809319    0.1400
@<TRIPOS>BOND
     1     1     2    1
     2     1    31    1
     3     1    32    1
     4     1    33    1
     5     2     3    1
     6     2    34    1
     7     2    35    1
     8     3     4    1
     9     4    30   ar
    10     4     5   ar
    11     5     6   ar
    12     5    36    1
    13     6     7   ar
    14     6    37    1
    15     7     8    1
    16     7    29   ar
    17     8    28    1
    18     8     9    2
    19     9    10    1
    20     9    38    1
    21    10    11    2
    22    10    12   am
    23    12    13    1
    24    12    27    1
    25    13    14    1
    26    13    39    1
    27    13    40    1
    28    14    15    2
    29    14    16   am
    30    16    17    1
    31    16    41    1
    32    17    18    1
    33    17    42    1
    34    17    43    1
    35    18    19    1
    36    18    44    1
    37    18    45    1
    38    19    24   ar
    39    19    20   ar
    40    20    21   ar
    41    20    46    1
    42    21    22   ar
    43    21    47    1
    44    22    23   ar
    45    22    48    1
    46    23    24   ar
    47    23    49    1
    48    24    25    1
    49    25    26    1
    50    26    50    1
    51    26    51    1
    52    26    52    1
    53    27    28    2
    54    27    53    1
    55    29    30   ar
    56    29    54    1
    57    30    55    1
@<TRIPOS>SUBSTRUCTURE
     1 ZINC000013809319        1 TEMP              0 ****  ****    0 ROOT


##########                                Name:    ZINC000487792031
##########                DOCK_Rotatable_Bonds:                  12
##########                         Heavy_Atoms:                  29
##########                    Molecular_Weight:             414.569
##########                DOCK_Rotatable_Bonds:                  12
##########                       Formal_Charge:          -0.0100001
##########                     HBond_Acceptors:                   6
##########                        HBond_Donors:                   1
##########                         Heavy_Atoms:                  29
##########                          Grid_Score:          -37.443394
##########                     Grid_vdw_energy:          -37.595402
##########                      Grid_es_energy:            0.152009
##########           Internal_energy_repulsive:           17.280491

@<TRIPOS>MOLECULE
ZINC000487792031
 59 60 1 0 0
SMALL
USER_CHARGES


@<TRIPOS>ATOM
      1 C1        -14.4938   -6.3520   56.4417 C.2     1  ZINC000487792031   -0.1900
      2 C2        -14.4759   -5.2162   57.0943 C.2     1  ZINC000487792031   -0.1500
      3 C3        -13.2320   -4.3655   57.0922 C.3     1  ZINC000487792031   -0.0900
      4 C4        -13.2664   -3.4148   55.8940 C.3     1  ZINC000487792031   -0.0900
      5 C5        -11.9278   -2.6815   55.7861 C.3     1  ZINC000487792031   -0.0700
      6 H6        -11.1395   -3.3970   55.5516 H       1  ZINC000487792031    0.1100
      7 C7        -12.0085   -1.6468   54.6934 C.2     1  ZINC000487792031    0.5200
      8 O8        -13.0888   -1.2364   54.3255 O.2     1  ZINC000487792031   -0.5300
      9 N9        -10.8802   -1.1777   54.1249 N.am    1  ZINC000487792031   -0.7200
     10 C10       -10.9586   -0.1732   53.0615 C.3     1  ZINC000487792031    0.1500
     11 C11        -9.5902    0.4099   52.8193 C.ar    1  ZINC000487792031   -0.0500
     12 C12        -9.2930    1.6841   53.2653 C.ar    1  ZINC000487792031   -0.1200
     13 C13        -8.0379    2.2189   53.0430 C.ar    1  ZINC000487792031   -0.0200
     14 C14        -7.0797    1.4794   52.3753 C.ar    1  ZINC000487792031   -0.6700
     15 S15        -5.4800    2.1613   52.0916 S.o2    1  ZINC000487792031    2.6900
     16 O16        -5.2311    3.0603   53.1635 O.2     1  ZINC000487792031   -0.9500
     17 O17        -4.6272    1.0680   51.7803 O.2     1  ZINC000487792031   -0.9500
     18 N18        -5.5768    3.0842   50.7201 N.am    1  ZINC000487792031   -1.0000
     19 C19        -6.4995    4.2208   50.6656 C.3     1  ZINC000487792031    0.1200
     20 C20        -7.8045    3.7865   49.9955 C.3     1  ZINC000487792031   -0.1800
     21 C21        -4.7396    2.7641   49.5612 C.3     1  ZINC000487792031    0.1100
     22 C22        -3.3062    3.2308   49.8231 C.3     1  ZINC000487792031   -0.1800
     23 C23        -7.3765    0.2046   51.9305 C.ar    1  ZINC000487792031   -0.0200
     24 C24        -8.6305   -0.3317   52.1561 C.ar    1  ZINC000487792031   -0.1200
     25 C25       -11.6186   -2.0050   57.0966 C.ar    1  ZINC000487792031   -0.0800
     26 C26       -12.2190   -0.8001   57.4111 C.ar    1  ZINC000487792031   -0.1100
     27 C27       -11.9353   -0.1795   58.6133 C.ar    1  ZINC000487792031   -0.1100
     28 C28       -11.0516   -0.7640   59.5013 C.ar    1  ZINC000487792031   -0.1200
     29 C29       -10.4520   -1.9693   59.1873 C.ar    1  ZINC000487792031   -0.1200
     30 C30       -10.7390   -2.5920   57.9869 C.ar    1  ZINC000487792031   -0.1100
     31 H31       -15.3853   -6.9616   56.4433 H       1  ZINC000487792031    0.1000
     32 H32       -13.6186   -6.6765   55.8986 H       1  ZINC000487792031    0.1000
     33 H33       -15.3526   -4.8895   57.6339 H       1  ZINC000487792031    0.1100
     34 H34       -13.1863   -3.7863   58.0144 H       1  ZINC000487792031    0.0700
     35 H35       -12.3533   -5.0067   57.0221 H       1  ZINC000487792031    0.0700
     36 H36       -13.4425   -3.9855   54.9822 H       1  ZINC000487792031    0.0800
     37 H37       -14.0683   -2.6890   56.0290 H       1  ZINC000487792031    0.0700
     38 H38       -10.0161   -1.5051   54.4200 H       1  ZINC000487792031    0.4000
     39 H39       -11.3216   -0.6407   52.1462 H       1  ZINC000487792031    0.0800
     40 H40       -11.6438    0.6200   53.3607 H       1  ZINC000487792031    0.0800
     41 H41       -10.0416    2.2619   53.7871 H       1  ZINC000487792031    0.1400
     42 H42        -7.8058    3.2147   53.3909 H       1  ZINC000487792031    0.1400
     43 H43        -6.7087    4.5679   51.6775 H       1  ZINC000487792031    0.0800
     44 H44        -6.0472    5.0288   50.0906 H       1  ZINC000487792031    0.0800
     45 H45        -7.5954    3.4394   48.9836 H       1  ZINC000487792031    0.0600
     46 H46        -8.2569    2.9785   50.5705 H       1  ZINC000487792031    0.0600
     47 H47        -8.4911    4.6321   49.9549 H       1  ZINC000487792031    0.0700
     48 H48        -4.7462    1.6868   49.3947 H       1  ZINC000487792031    0.0900
     49 H49        -5.1312    3.2704   48.6791 H       1  ZINC000487792031    0.0900
     50 H50        -3.2996    4.3080   49.9895 H       1  ZINC000487792031    0.0600
     51 H51        -2.9146    2.7244   50.7052 H       1  ZINC000487792031    0.0600
     52 H52        -2.6834    2.9925   48.9608 H       1  ZINC000487792031    0.0700
     53 H53        -6.6278   -0.3734   51.4091 H       1  ZINC000487792031    0.1400
     54 H54        -8.8623   -1.3277   51.8085 H       1  ZINC000487792031    0.1400
     55 H55       -12.9092   -0.3435   56.7173 H       1  ZINC000487792031    0.1200
     56 H56       -12.4037    0.7621   58.8587 H       1  ZINC000487792031    0.1200
     57 H57       -10.8295   -0.2788   60.4403 H       1  ZINC000487792031    0.1200
     58 H58        -9.7614   -2.4257   59.8808 H       1  ZINC000487792031    0.1200
     59 H59       -10.2705   -3.5337   57.7416 H       1  ZINC000487792031    0.1200
@<TRIPOS>BOND
     1     1     2    2
     2     1    31    1
     3     1    32    1
     4     2     3    1
     5     2    33    1
     6     3     4    1
     7     3    34    1
     8     3    35    1
     9     4     5    1
    10     4    36    1
    11     4    37    1
    12     5     6    1
    13     5     7    1
    14     5    25    1
    15     7     8    2
    16     7     9   am
    17     9    10    1
    18     9    38    1
    19    10    11    1
    20    10    39    1
    21    10    40    1
    22    11    24   ar
    23    11    12   ar
    24    12    13   ar
    25    12    41    1
    26    13    14   ar
    27    13    42    1
    28    14    15    1
    29    14    23   ar
    30    15    16    2
    31    15    17    2
    32    15    18   am
    33    18    19    1
    34    18    21    1
    35    19    20    1
    36    19    43    1
    37    19    44    1
    38    20    45    1
    39    20    46    1
    40    20    47    1
    41    21    22    1
    42    21    48    1
    43    21    49    1
    44    22    50    1
    45    22    51    1
    46    22    52    1
    47    23    24   ar
    48    23    53    1
    49    24    54    1
    50    25    30   ar
    51    25    26   ar
    52    26    27   ar
    53    26    55    1
    54    27    28   ar
    55    27    56    1
    56    28    29   ar
    57    28    57    1
    58    29    30   ar
    59    29    58    1
    60    30    59    1
@<TRIPOS>SUBSTRUCTURE
     1 ZINC000487792031        1 TEMP              0 ****  ****    0 ROOT


##########                                Name:    ZINC000428266315
##########                DOCK_Rotatable_Bonds:                  10
##########                         Heavy_Atoms:                  30
##########                    Molecular_Weight:             423.438
##########                DOCK_Rotatable_Bonds:                  10
##########                       Formal_Charge:          0.00999977
##########                     HBond_Acceptors:                  10
##########                        HBond_Donors:                   0
##########                         Heavy_Atoms:                  30
##########                          Grid_Score:          -37.377705
##########                     Grid_vdw_energy:          -35.871399
##########                      Grid_es_energy:           -1.506307
##########           Internal_energy_repulsive:           12.065994

@<TRIPOS>MOLECULE
ZINC000428266315
 54 56 1 0 0
SMALL
USER_CHARGES


@<TRIPOS>ATOM
      1 C1        -13.5684    2.3392   50.0518 C.3     1  ZINC000428266315   -0.1500
      2 C2        -12.7050    3.0661   49.0188 C.3     1  ZINC000428266315    0.0600
      3 O3        -11.4714    3.4611   49.6224 O.3     1  ZINC000428266315   -0.3700
      4 C4        -10.5869    4.1525   48.7382 C.3     1  ZINC000428266315    0.1800
      5 H5        -10.3403    3.5085   47.8941 H       1  ZINC000428266315    0.0900
      6 C6        -11.2674    5.4242   48.2276 C.3     1  ZINC000428266315   -0.1700
      7 C7         -9.3250    4.5194   49.4757 C.2     1  ZINC000428266315    0.1700
      8 N8         -9.1114    5.6188   50.1346 N.2     1  ZINC000428266315   -0.3500
      9 O9         -7.9977    5.6106   50.6152 O.3     1  ZINC000428266315    0.0800
     10 C10        -7.3763    4.4706   50.2989 C.2     1  ZINC000428266315    0.1900
     11 C11        -5.9803    4.0683   50.6996 C.3     1  ZINC000428266315    0.1500
     12 N12        -5.9402    2.6212   50.9490 N.3     1  ZINC000428266315   -0.5300
     13 C13        -4.5799    2.0945   50.7752 C.3     1  ZINC000428266315    0.0200
     14 C14        -6.4613    2.3027   52.2850 C.3     1  ZINC000428266315    0.1400
     15 C15        -7.5185    1.2348   52.1703 C.2     1  ZINC000428266315   -0.2300
     16 C16        -8.8435    1.3994   52.3899 C.2     1  ZINC000428266315    0.0800
     17 N17        -9.4456    0.2094   52.1840 N.pl3   1  ZINC000428266315   -0.3700
     18 C18       -10.8790   -0.0650   52.3118 C.3     1  ZINC000428266315    0.1700
     19 C19       -11.1310   -0.8402   53.5793 C.ar    1  ZINC000428266315   -0.0800
     20 C20       -11.4266   -2.1890   53.5173 C.ar    1  ZINC000428266315   -0.1000
     21 C21       -11.6579   -2.9001   54.6800 C.ar    1  ZINC000428266315   -0.0700
     22 C22       -11.5930   -2.2623   55.9047 C.ar    1  ZINC000428266315   -0.1700
     23 C23       -11.8456   -3.0374   57.1722 C.3     1  ZINC000428266315    0.5100
     24 F24       -10.7635   -3.8882   57.4220 F       1  ZINC000428266315   -0.1700
     25 F25       -11.9953   -2.1473   58.2411 F       1  ZINC000428266315   -0.1800
     26 F26       -13.0123   -3.7961   57.0302 F       1  ZINC000428266315   -0.1800
     27 C27       -11.2961   -0.9136   55.9667 C.ar    1  ZINC000428266315   -0.0700
     28 C28       -11.0610   -0.2035   54.8043 C.ar    1  ZINC000428266315   -0.0800
     29 N29        -8.4578   -0.7173   51.8262 N.2     1  ZINC000428266315   -0.2900
     30 C30        -7.3042   -0.1003   51.8124 C.2     1  ZINC000428266315    0.0600
     31 N31        -8.2150    3.7667   49.5774 N.2     1  ZINC000428266315   -0.4600
     32 H32       -14.5094    2.0379   49.5915 H       1  ZINC000428266315    0.0700
     33 H33       -13.0399    1.4559   50.4101 H       1  ZINC000428266315    0.0600
     34 H34       -13.7711    3.0061   50.8899 H       1  ZINC000428266315    0.0600
     35 H35       -12.5024    2.3992   48.1808 H       1  ZINC000428266315    0.0500
     36 H36       -13.2336    3.9495   48.6606 H       1  ZINC000428266315    0.0500
     37 H37       -11.5141    6.0682   49.0717 H       1  ZINC000428266315    0.0700
     38 H38       -10.5928    5.9515   47.5532 H       1  ZINC000428266315    0.0700
     39 H39       -12.1802    5.1587   47.6942 H       1  ZINC000428266315    0.0700
     40 H40        -5.2858    4.3181   49.8975 H       1  ZINC000428266315    0.0800
     41 H41        -5.6948    4.6013   51.6065 H       1  ZINC000428266315    0.1200
     42 H42        -3.9067    2.5888   51.4757 H       1  ZINC000428266315    0.0400
     43 H43        -4.5787    1.0213   50.9659 H       1  ZINC000428266315    0.0800
     44 H44        -4.2450    2.2827   49.7552 H       1  ZINC000428266315    0.0600
     45 H45        -5.6484    1.9430   52.9159 H       1  ZINC000428266315    0.0500
     46 H46        -6.8963    3.1984   52.7284 H       1  ZINC000428266315    0.0900
     47 H47        -9.3318    2.3186   52.6782 H       1  ZINC000428266315    0.1700
     48 H48       -11.4274    0.8763   52.3464 H       1  ZINC000428266315    0.1000
     49 H49       -11.2146   -0.6498   51.4553 H       1  ZINC000428266315    0.1100
     50 H50       -11.4773   -2.6874   52.5605 H       1  ZINC000428266315    0.1300
     51 H51       -11.8895   -3.9539   54.6315 H       1  ZINC000428266315    0.1400
     52 H52       -11.2451   -0.4154   56.9236 H       1  ZINC000428266315    0.1400
     53 H53       -10.8290    0.8502   54.8528 H       1  ZINC000428266315    0.1400
     54 H54        -6.3501   -0.5465   51.5736 H       1  ZINC000428266315    0.1800
@<TRIPOS>BOND
     1     1     2    1
     2     1    32    1
     3     1    33    1
     4     1    34    1
     5     2     3    1
     6     2    35    1
     7     2    36    1
     8     3     4    1
     9     4     5    1
    10     4     6    1
    11     4     7    1
    12     6    37    1
    13     6    38    1
    14     6    39    1
    15     7    31    1
    16     7     8    2
    17     8     9    1
    18     9    10    1
    19    10    11    1
    20    10    31    2
    21    11    12    1
    22    11    40    1
    23    11    41    1
    24    12    13    1
    25    12    14    1
    26    13    42    1
    27    13    43    1
    28    13    44    1
    29    14    15    1
    30    14    45    1
    31    14    46    1
    32    15    30    1
    33    15    16    2
    34    16    17    1
    35    16    47    1
    36    17    18    1
    37    17    29    1
    38    18    19    1
    39    18    48    1
    40    18    49    1
    41    19    28   ar
    42    19    20   ar
    43    20    21   ar
    44    20    50    1
    45    21    22   ar
    46    21    51    1
    47    22    23    1
    48    22    27   ar
    49    23    24    1
    50    23    25    1
    51    23    26    1
    52    27    28   ar
    53    27    52    1
    54    28    53    1
    55    29    30    2
    56    30    54    1
@<TRIPOS>SUBSTRUCTURE
     1 ZINC000428266315        1 TEMP              0 ****  ****    0 ROOT


##########                                Name:    ZINC000506566356
##########                DOCK_Rotatable_Bonds:                  10
##########                         Heavy_Atoms:                  28
##########                    Molecular_Weight:               415.9
##########                DOCK_Rotatable_Bonds:                  10
##########                       Formal_Charge:           0.0199998
##########                     HBond_Acceptors:                   8
##########                        HBond_Donors:                   2
##########                         Heavy_Atoms:                  28
##########                          Grid_Score:          -37.354774
##########                     Grid_vdw_energy:          -36.415855
##########                      Grid_es_energy:           -0.938918
##########           Internal_energy_repulsive:            8.788763

@<TRIPOS>MOLECULE
ZINC000506566356
 46 48 1 0 0
SMALL
USER_CHARGES


@<TRIPOS>ATOM
      1 O1         -9.9416    1.1932   54.3647 O.2     1  ZINC000506566356   -0.5100
      2 C2         -9.9721    0.2061   53.6594 C.2     1  ZINC000506566356    0.5100
      3 N3         -9.1223    0.0944   52.6194 N.am    1  ZINC000506566356   -0.7000
      4 C4         -8.1657    1.1672   52.3366 C.3     1  ZINC000506566356    0.1200
      5 C5         -7.0928    0.6534   51.3744 C.3     1  ZINC000506566356   -0.0900
      6 C6         -6.1459    1.7749   51.0325 C.ar    1  ZINC000506566356   -0.0700
      7 C7         -6.6417    3.0260   50.7174 C.ar    1  ZINC000506566356   -0.1100
      8 C8         -5.7736    4.0555   50.4042 C.ar    1  ZINC000506566356   -0.1000
      9 C9         -4.4095    3.8340   50.4056 C.ar    1  ZINC000506566356   -0.1100
     10 C10        -3.9126    2.5818   50.7209 C.ar    1  ZINC000506566356   -0.0300
     11 Cl11       -2.1991    2.3029   50.7234 Cl      1  ZINC000506566356   -0.0700
     12 C12        -4.7813    1.5536   51.0398 C.ar    1  ZINC000506566356   -0.1000
     13 C13       -10.9473   -0.8876   53.9476 C.2     1  ZINC000506566356    0.5100
     14 O14       -11.1617   -1.7445   53.1150 O.2     1  ZINC000506566356   -0.5000
     15 N15       -11.5892   -0.9232   55.1321 N.am    1  ZINC000506566356   -0.6300
     16 C16       -12.5026   -1.9476   55.4021 C.ar    1  ZINC000506566356    0.1100
     17 C17       -13.7761   -1.9070   54.8528 C.ar    1  ZINC000506566356   -0.0800
     18 C18       -14.6768   -2.9204   55.1212 C.ar    1  ZINC000506566356   -0.1400
     19 C19       -14.3124   -3.9759   55.9365 C.ar    1  ZINC000506566356   -0.0900
     20 C20       -13.0452   -4.0234   56.4882 C.ar    1  ZINC000506566356   -0.1900
     21 C21       -12.1342   -3.0153   56.2195 C.ar    1  ZINC000506566356    0.1200
     22 O22       -10.8880   -3.0605   56.7611 O.3     1  ZINC000506566356   -0.3100
     23 C23       -10.7978   -3.3506   58.1575 C.3     1  ZINC000506566356    0.1400
     24 C24       -10.3120   -2.1289   58.8940 C.2     1  ZINC000506566356    0.0500
     25 C25       -10.9463   -0.9538   58.8423 C.2     1  ZINC000506566356   -0.2300
     26 S26       -10.0493    0.1909   59.8372 S.3     1  ZINC000506566356    0.1400
     27 C27        -8.9106   -1.0246   60.2238 C.2     1  ZINC000506566356    0.0200
     28 N28        -9.2300   -2.1333   59.6463 N.2     1  ZINC000506566356   -0.4700
     29 H29        -9.1441   -0.6964   52.0579 H       1  ZINC000506566356    0.4200
     30 H30        -8.6879    2.0093   51.8824 H       1  ZINC000506566356    0.0800
     31 H31        -7.6960    1.4895   53.2659 H       1  ZINC000506566356    0.0800
     32 H32        -6.5393   -0.1580   51.8470 H       1  ZINC000506566356    0.0900
     33 H33        -7.5667    0.2877   50.4635 H       1  ZINC000506566356    0.0900
     34 H34        -7.7078    3.1993   50.7156 H       1  ZINC000506566356    0.1300
     35 H35        -6.1617    5.0328   50.1581 H       1  ZINC000506566356    0.1300
     36 H36        -3.7316    4.6381   50.1602 H       1  ZINC000506566356    0.1300
     37 H37        -4.3940    0.5760   51.2861 H       1  ZINC000506566356    0.1300
     38 H38       -11.4178   -0.2385   55.7975 H       1  ZINC000506566356    0.4300
     39 H39       -14.0636   -1.0835   54.2159 H       1  ZINC000506566356    0.1500
     40 H40       -15.6678   -2.8875   54.6934 H       1  ZINC000506566356    0.1300
     41 H41       -15.0196   -4.7655   56.1433 H       1  ZINC000506566356    0.1300
     42 H42       -12.7643   -4.8492   57.1252 H       1  ZINC000506566356    0.1400
     43 H43       -11.7805   -3.6349   58.5338 H       1  ZINC000506566356    0.0900
     44 H44       -10.0976   -4.1712   58.3136 H       1  ZINC000506566356    0.0900
     45 H45       -11.8492   -0.7429   58.2885 H       1  ZINC000506566356    0.1800
     46 H46        -8.0510   -0.8855   60.8627 H       1  ZINC000506566356    0.2100
@<TRIPOS>BOND
     1     1     2    2
     2     2     3   am
     3     2    13    1
     4     3     4    1
     5     3    29    1
     6     4     5    1
     7     4    30    1
     8     4    31    1
     9     5     6    1
    10     5    32    1
    11     5    33    1
    12     6    12   ar
    13     6     7   ar
    14     7     8   ar
    15     7    34    1
    16     8     9   ar
    17     8    35    1
    18     9    10   ar
    19     9    36    1
    20    10    11    1
    21    10    12   ar
    22    12    37    1
    23    13    14    2
    24    13    15   am
    25    15    16    1
    26    15    38    1
    27    16    21   ar
    28    16    17   ar
    29    17    18   ar
    30    17    39    1
    31    18    19   ar
    32    18    40    1
    33    19    20   ar
    34    19    41    1
    35    20    21   ar
    36    20    42    1
    37    21    22    1
    38    22    23    1
    39    23    24    1
    40    23    43    1
    41    23    44    1
    42    24    28    1
    43    24    25    2
    44    25    26    1
    45    25    45    1
    46    26    27    1
    47    27    28    2
    48    27    46    1
@<TRIPOS>SUBSTRUCTURE
     1 ZINC000506566356        1 TEMP              0 ****  ****    0 ROOT


##########                                Name:    ZINC000050607728
##########                DOCK_Rotatable_Bonds:                  10
##########                         Heavy_Atoms:                  31
##########                    Molecular_Weight:             416.476
##########                DOCK_Rotatable_Bonds:                  10
##########                       Formal_Charge:          -0.0199995
##########                     HBond_Acceptors:                   6
##########                        HBond_Donors:                   1
##########                         Heavy_Atoms:                  31
##########                          Grid_Score:          -37.328484
##########                     Grid_vdw_energy:          -37.354439
##########                      Grid_es_energy:            0.025955
##########           Internal_energy_repulsive:           17.036694

@<TRIPOS>MOLECULE
ZINC000050607728
 55 57 1 0 0
SMALL
USER_CHARGES


@<TRIPOS>ATOM
      1 C1         -7.3099    2.9117   50.0347 C.3     1  ZINC000050607728    0.0800
      2 N2         -6.0218    2.3577   50.4590 N.am    1  ZINC000050607728   -0.6200
      3 C3         -4.7849    2.8000   49.8105 C.3     1  ZINC000050607728    0.0700
      4 C4         -5.9747    1.4412   51.4460 C.2     1  ZINC000050607728    0.5600
      5 O5         -4.9059    0.9815   51.7980 O.2     1  ZINC000050607728   -0.5300
      6 C6         -7.2229    0.9948   52.1005 C.ar    1  ZINC000050607728   -0.1400
      7 C7         -7.8564   -0.1746   51.6779 C.ar    1  ZINC000050607728   -0.0800
      8 C8         -9.0208   -0.5860   52.2932 C.ar    1  ZINC000050607728   -0.1300
      9 C9         -9.5608    0.1585   53.3267 C.ar    1  ZINC000050607728   -0.0700
     10 C10        -8.9380    1.3194   53.7502 C.ar    1  ZINC000050607728   -0.1100
     11 C11        -9.5336    2.1243   54.8765 C.3     1  ZINC000050607728    0.1100
     12 O12       -10.3762    1.2672   55.6911 O.3     1  ZINC000050607728   -0.3400
     13 C13        -9.9305    0.9654   56.9207 C.2     1  ZINC000050607728    0.4700
     14 O14        -8.7640    1.1200   57.1953 O.2     1  ZINC000050607728   -0.5000
     15 C15       -10.8849    0.4336   57.9587 C.3     1  ZINC000050607728    0.2000
     16 H16       -11.5955    1.2135   58.2324 H       1  ZINC000050607728    0.1400
     17 N17       -11.6090   -0.7169   57.4124 N.am    1  ZINC000050607728   -0.7100
     18 C18       -12.5460   -1.3381   58.1557 C.2     1  ZINC000050607728    0.5700
     19 O19       -12.7916   -0.9429   59.2786 O.2     1  ZINC000050607728   -0.5200
     20 C20       -13.2755   -2.5003   57.6051 C.ar    1  ZINC000050607728   -0.1400
     21 C21       -12.9653   -2.9840   56.3331 C.ar    1  ZINC000050607728   -0.0800
     22 C22       -13.6494   -4.0691   55.8254 C.ar    1  ZINC000050607728   -0.1300
     23 C23       -14.6413   -4.6775   56.5740 C.ar    1  ZINC000050607728   -0.0900
     24 C24       -14.9539   -4.2026   57.8354 C.ar    1  ZINC000050607728   -0.1300
     25 C25       -14.2732   -3.1221   58.3573 C.ar    1  ZINC000050607728   -0.0600
     26 C26       -10.1121    0.0071   59.1801 C.ar    1  ZINC000050607728   -0.1000
     27 C27       -10.0986    0.8104   60.3049 C.ar    1  ZINC000050607728   -0.1000
     28 C28        -9.3898    0.4191   61.4253 C.ar    1  ZINC000050607728   -0.1200
     29 C29        -8.6947   -0.7757   61.4210 C.ar    1  ZINC000050607728   -0.1100
     30 C30        -8.7089   -1.5795   60.2964 C.ar    1  ZINC000050607728   -0.1200
     31 C31        -9.4213   -1.1903   59.1775 C.ar    1  ZINC000050607728   -0.0800
     32 C32        -7.7701    1.7383   53.1477 C.ar    1  ZINC000050607728   -0.0400
     33 H33        -7.7243    2.2970   49.2356 H       1  ZINC000050607728    0.0600
     34 H34        -7.9979    2.9206   50.8801 H       1  ZINC000050607728    0.0800
     35 H35        -7.1661    3.9297   49.6726 H       1  ZINC000050607728    0.0700
     36 H36        -4.4288    3.7116   50.2904 H       1  ZINC000050607728    0.0600
     37 H37        -4.0277    2.0213   49.9026 H       1  ZINC000050607728    0.0800
     38 H38        -4.9777    2.9962   48.7557 H       1  ZINC000050607728    0.0700
     39 H39        -7.4362   -0.7564   50.8707 H       1  ZINC000050607728    0.1400
     40 H40        -9.5121   -1.4908   51.9672 H       1  ZINC000050607728    0.1400
     41 H41       -10.4727   -0.1675   53.8047 H       1  ZINC000050607728    0.1300
     42 H42        -8.7334    2.5371   55.4908 H       1  ZINC000050607728    0.0900
     43 H43       -10.1321    2.9372   54.4651 H       1  ZINC000050607728    0.0900
     44 H44       -11.4139   -1.0316   56.5159 H       1  ZINC000050607728    0.4100
     45 H45       -12.1918   -2.5096   55.7474 H       1  ZINC000050607728    0.1300
     46 H46       -13.4104   -4.4444   54.8413 H       1  ZINC000050607728    0.1300
     47 H47       -15.1741   -5.5265   56.1718 H       1  ZINC000050607728    0.1300
     48 H48       -15.7295   -4.6817   58.4145 H       1  ZINC000050607728    0.1300
     49 H49       -14.5180   -2.7527   59.3423 H       1  ZINC000050607728    0.1400
     50 H50       -10.6417    1.7439   60.3083 H       1  ZINC000050607728    0.1200
     51 H51        -9.3787    1.0471   62.3039 H       1  ZINC000050607728    0.1200
     52 H52        -8.1403   -1.0811   62.2961 H       1  ZINC000050607728    0.1200
     53 H53        -8.1655   -2.5130   60.2930 H       1  ZINC000050607728    0.1300
     54 H54        -9.4323   -1.8183   58.2990 H       1  ZINC000050607728    0.1300
     55 H55        -7.2847    2.6443   53.4794 H       1  ZINC000050607728    0.1300
@<TRIPOS>BOND
     1     1     2    1
     2     1    33    1
     3     1    34    1
     4     1    35    1
     5     2     3    1
     6     2     4   am
     7     3    36    1
     8     3    37    1
     9     3    38    1
    10     4     5    2
    11     4     6    1
    12     6    32   ar
    13     6     7   ar
    14     7     8   ar
    15     7    39    1
    16     8     9   ar
    17     8    40    1
    18     9    10   ar
    19     9    41    1
    20    10    11    1
    21    10    32   ar
    22    11    12    1
    23    11    42    1
    24    11    43    1
    25    12    13    1
    26    13    14    2
    27    13    15    1
    28    15    16    1
    29    15    17    1
    30    15    26    1
    31    17    18   am
    32    17    44    1
    33    18    19    2
    34    18    20    1
    35    20    25   ar
    36    20    21   ar
    37    21    22   ar
    38    21    45    1
    39    22    23   ar
    40    22    46    1
    41    23    24   ar
    42    23    47    1
    43    24    25   ar
    44    24    48    1
    45    25    49    1
    46    26    31   ar
    47    26    27   ar
    48    27    28   ar
    49    27    50    1
    50    28    29   ar
    51    28    51    1
    52    29    30   ar
    53    29    52    1
    54    30    31   ar
    55    30    53    1
    56    31    54    1
    57    32    55    1
@<TRIPOS>SUBSTRUCTURE
     1 ZINC000050607728        1 TEMP              0 ****  ****    0 ROOT


##########                                Name:    ZINC000824084043
##########                DOCK_Rotatable_Bonds:                  11
##########                         Heavy_Atoms:                  27
##########                    Molecular_Weight:             382.547
##########                DOCK_Rotatable_Bonds:                  11
##########                       Formal_Charge:        -6.85453e-07
##########                     HBond_Acceptors:                   7
##########                        HBond_Donors:                   3
##########                         Heavy_Atoms:                  27
##########                          Grid_Score:          -37.292091
##########                     Grid_vdw_energy:          -35.512012
##########                      Grid_es_energy:           -1.780077
##########           Internal_energy_repulsive:           21.550514

@<TRIPOS>MOLECULE
ZINC000824084043
 65 66 1 0 0
SMALL
USER_CHARGES


@<TRIPOS>ATOM
      1 C1        -13.3240   -1.4239   60.2936 C.3     1  ZINC000824084043   -0.1400
      2 C2        -12.8618   -0.5552   59.1219 C.3     1  ZINC000824084043   -0.1000
      3 C3        -11.9691    0.5723   59.6441 C.3     1  ZINC000824084043   -0.1300
      4 C4        -12.0726   -1.4133   58.1311 C.3     1  ZINC000824084043    0.1700
      5 H5        -12.4036   -2.4492   58.2035 H       1  ZINC000824084043    0.0700
      6 C6        -12.3107   -0.9000   56.7095 C.3     1  ZINC000824084043   -0.1400
      7 C7        -11.1567   -1.3427   55.8076 C.3     1  ZINC000824084043    0.1300
      8 N8        -11.6070   -1.3639   54.4136 N.am    1  ZINC000824084043   -0.6200
      9 C9        -12.8103   -2.1134   54.0438 C.3     1  ZINC000824084043    0.0800
     10 C10       -10.9142   -0.6940   53.4715 C.2     1  ZINC000824084043    0.7000
     11 O11       -11.2869   -0.7126   52.3143 O.2     1  ZINC000824084043   -0.5800
     12 N12        -9.8082   -0.0031   53.8121 N.am    1  ZINC000824084043   -0.7500
     13 C13        -9.0541    0.7237   52.7878 C.3     1  ZINC000824084043    0.1600
     14 C14        -8.1310    1.7445   53.4594 C.3     1  ZINC000824084043   -0.1600
     15 C15        -7.2892    2.4440   52.3899 C.3     1  ZINC000824084043   -0.0100
     16 N16        -6.4822    1.4512   51.6706 N.4     1  ZINC000824084043   -0.3800
     17 H17        -5.9088    0.9448   52.3286 H       1  ZINC000824084043    0.4200
     18 C18        -5.6201    2.1353   50.6974 C.3     1  ZINC000824084043    0.0000
     19 C19        -4.2010    2.2414   51.2593 C.3     1  ZINC000824084043   -0.1200
     20 C20        -3.1746    2.4079   50.1113 C.3     1  ZINC000824084043   -0.1400
     21 C21        -1.9766    3.0874   50.8199 C.3     1  ZINC000824084043   -0.1200
     22 C22        -2.6318    4.0668   51.8157 C.3     1  ZINC000824084043   -0.1300
     23 C23        -4.0462    3.5288   52.0950 C.3     1  ZINC000824084043   -0.1100
     24 C24        -7.3614    0.5111   50.9651 C.3     1  ZINC000824084043    0.0000
     25 C25        -8.2060   -0.2627   51.9798 C.3     1  ZINC000824084043   -0.1600
     26 N26       -10.6440   -1.3339   58.4461 N.am    1  ZINC000824084043   -0.7800
     27 C27       -10.0131   -2.3954   58.9861 C.2     1  ZINC000824084043    0.6600
     28 O28       -10.6334   -3.4243   59.2145 O.co2   1  ZINC000824084043   -0.7200
     29 O29        -8.8201   -2.3296   59.2477 O.co2   1  ZINC000824084043   -0.7300
     30 H30       -13.8861   -0.8126   60.9995 H       1  ZINC000824084043    0.0500
     31 H31       -13.9599   -2.2272   59.9216 H       1  ZINC000824084043    0.0500
     32 H32       -12.4550   -1.8507   60.7943 H       1  ZINC000824084043    0.0500
     33 H33       -13.7308   -0.1283   58.6211 H       1  ZINC000824084043    0.0500
     34 H34       -11.1001    0.1454   60.1447 H       1  ZINC000824084043    0.0600
     35 H35       -11.6399    1.1912   58.8094 H       1  ZINC000824084043    0.0700
     36 H36       -12.5313    1.1836   60.3500 H       1  ZINC000824084043    0.0300
     37 H37       -13.2469   -1.3076   56.3281 H       1  ZINC000824084043    0.0700
     38 H38       -12.3661    0.1885   56.7207 H       1  ZINC000824084043    0.0600
     39 H39       -10.3265   -0.6441   55.9106 H       1  ZINC000824084043    0.0900
     40 H40       -10.8301   -2.3409   56.0991 H       1  ZINC000824084043    0.0900
     41 H41       -13.6819   -1.4639   54.1246 H       1  ZINC000824084043    0.0600
     42 H42       -12.7159   -2.4689   53.0178 H       1  ZINC000824084043    0.0600
     43 H43       -12.9282   -2.9649   54.7140 H       1  ZINC000824084043    0.0800
     44 H44        -9.5115    0.0128   54.7355 H       1  ZINC000824084043    0.4000
     45 H45        -9.7466    1.2392   52.1224 H       1  ZINC000824084043    0.1100
     46 H46        -8.7309    2.4831   53.9911 H       1  ZINC000824084043    0.1200
     47 H47        -7.4740    1.2334   54.1631 H       1  ZINC000824084043    0.0900
     48 H48        -7.9472    2.9549   51.6870 H       1  ZINC000824084043    0.1300
     49 H49        -6.6310    3.1716   52.8647 H       1  ZINC000824084043    0.1300
     50 H50        -5.6011    1.5679   49.7670 H       1  ZINC000824084043    0.1300
     51 H51        -6.0107    3.1346   50.5056 H       1  ZINC000824084043    0.1300
     52 H52        -3.9636    1.3646   51.8617 H       1  ZINC000824084043    0.1000
     53 H53        -2.8852    1.4376   49.7081 H       1  ZINC000824084043    0.0700
     54 H54        -3.5739    3.0502   49.3263 H       1  ZINC000824084043    0.0800
     55 H55        -1.3776    2.3475   51.3507 H       1  ZINC000824084043    0.0700
     56 H56        -1.3643    3.6292   50.0991 H       1  ZINC000824084043    0.0800
     57 H57        -2.0556    4.1002   52.7403 H       1  ZINC000824084043    0.0700
     58 H58        -2.6911    5.0623   51.3759 H       1  ZINC000824084043    0.0700
     59 H59        -4.7918    4.2633   51.7908 H       1  ZINC000824084043    0.0700
     60 H60        -4.1564    3.3012   53.1552 H       1  ZINC000824084043    0.0800
     61 H61        -8.0178    1.0632   50.2925 H       1  ZINC000824084043    0.1300
     62 H62        -6.7565   -0.1882   50.3880 H       1  ZINC000824084043    0.1300
     63 H63        -7.5505   -0.8154   52.6527 H       1  ZINC000824084043    0.0900
     64 H64        -8.8593   -0.9589   51.4539 H       1  ZINC000824084043    0.1200
     65 H65       -10.1524   -0.5174   58.2661 H       1  ZINC000824084043    0.3600
@<TRIPOS>BOND
     1     1     2    1
     2     1    30    1
     3     1    31    1
     4     1    32    1
     5     2     3    1
     6     2     4    1
     7     2    33    1
     8     3    34    1
     9     3    35    1
    10     3    36    1
    11     4     5    1
    12     4     6    1
    13     4    26    1
    14     6     7    1
    15     6    37    1
    16     6    38    1
    17     7     8    1
    18     7    39    1
    19     7    40    1
    20     8     9    1
    21     8    10   am
    22     9    41    1
    23     9    42    1
    24     9    43    1
    25    10    11    2
    26    10    12   am
    27    12    13    1
    28    12    44    1
    29    13    25    1
    30    13    14    1
    31    13    45    1
    32    14    15    1
    33    14    46    1
    34    14    47    1
    35    15    16    1
    36    15    48    1
    37    15    49    1
    38    16    17    1
    39    16    18    1
    40    16    24    1
    41    18    19    1
    42    18    50    1
    43    18    51    1
    44    19    23    1
    45    19    20    1
    46    19    52    1
    47    20    21    1
    48    20    53    1
    49    20    54    1
    50    21    22    1
    51    21    55    1
    52    21    56    1
    53    22    23    1
    54    22    57    1
    55    22    58    1
    56    23    59    1
    57    23    60    1
    58    24    25    1
    59    24    61    1
    60    24    62    1
    61    25    63    1
    62    25    64    1
    63    26    27   am
    64    26    65    1
    65    27    28   ar
    66    27    29   ar
@<TRIPOS>SUBSTRUCTURE
     1 ZINC000824084043        1 TEMP              0 ****  ****    0 ROOT


##########                                Name:    ZINC000434204837
##########                DOCK_Rotatable_Bonds:                   7
##########                         Heavy_Atoms:                  29
##########                    Molecular_Weight:             406.511
##########                DOCK_Rotatable_Bonds:                   7
##########                       Formal_Charge:          -0.0200002
##########                     HBond_Acceptors:                   8
##########                        HBond_Donors:                   0
##########                         Heavy_Atoms:                  29
##########                          Grid_Score:          -37.188507
##########                     Grid_vdw_energy:          -37.117317
##########                      Grid_es_energy:           -0.071191
##########           Internal_energy_repulsive:           14.561116

@<TRIPOS>MOLECULE
ZINC000434204837
 51 54 1 0 0
SMALL
USER_CHARGES


@<TRIPOS>ATOM
      1 C1        -11.4507   -3.2558   57.7056 C.3     1  ZINC000434204837   -0.1300
      2 C2        -12.0130   -2.5494   58.9122 C.ar    1  ZINC000434204837   -0.0700
      3 C3        -13.3583   -2.6553   59.2104 C.ar    1  ZINC000434204837   -0.1200
      4 C4        -13.8741   -2.0072   60.3175 C.ar    1  ZINC000434204837   -0.1100
      5 C5        -13.0443   -1.2536   61.1260 C.ar    1  ZINC000434204837   -0.1300
      6 C6        -11.6983   -1.1484   60.8282 C.ar    1  ZINC000434204837   -0.0900
      7 C7        -11.1818   -1.7998   59.7240 C.ar    1  ZINC000434204837   -0.1000
      8 C8         -9.7147   -1.6851   59.3993 C.3     1  ZINC000434204837    0.0100
      9 C9         -9.4943   -0.5133   58.4777 C.2     1  ZINC000434204837    0.2000
     10 N10       -10.3582   -0.0169   57.6252 N.2     1  ZINC000434204837   -0.4600
     11 C11        -9.7282    1.0103   57.0280 C.2     1  ZINC000434204837    0.1700
     12 C12       -10.3005    1.9099   55.9630 C.3     1  ZINC000434204837   -0.0300
     13 S13        -9.0333    2.2507   54.7163 S.3     1  ZINC000434204837    0.0900
     14 C14        -9.2721    0.8674   53.6512 C.2     1  ZINC000434204837    0.2100
     15 N15       -10.2009   -0.0572   53.7664 N.2     1  ZINC000434204837   -0.3300
     16 N16       -10.0938   -0.9224   52.8236 N.2     1  ZINC000434204837   -0.0200
     17 N17        -9.1079   -0.6234   52.0490 N.2     1  ZINC000434204837   -0.0700
     18 N18        -8.5365    0.5576   52.5540 N.pl3   1  ZINC000434204837   -0.3100
     19 C19        -7.4376    1.2600   52.0391 C.ar    1  ZINC000434204837    0.1100
     20 C20        -6.2084    0.6282   51.9066 C.ar    1  ZINC000434204837   -0.1100
     21 C21        -5.1277    1.3225   51.3987 C.ar    1  ZINC000434204837   -0.0900
     22 C22        -5.2691    2.6457   51.0229 C.ar    1  ZINC000434204837   -0.0600
     23 C23        -4.0881    3.4004   50.4691 C.3     1  ZINC000434204837   -0.0600
     24 C24        -3.0181    3.5403   51.5538 C.3     1  ZINC000434204837   -0.1500
     25 C25        -3.5086    2.6368   49.2766 C.3     1  ZINC000434204837   -0.1500
     26 C26        -6.4921    3.2777   51.1538 C.ar    1  ZINC000434204837   -0.1000
     27 C27        -7.5777    2.5869   51.6557 C.ar    1  ZINC000434204837   -0.0900
     28 N28        -8.5355    1.0850   57.5384 N.2     1  ZINC000434204837   -0.3600
     29 O29        -8.3829    0.2221   58.3772 O.3     1  ZINC000434204837    0.0900
     30 H30       -11.1267   -4.2572   57.9890 H       1  ZINC000434204837    0.0800
     31 H31       -12.2188   -3.3270   56.9355 H       1  ZINC000434204837    0.0700
     32 H32       -10.5999   -2.6944   57.3194 H       1  ZINC000434204837    0.0700
     33 H33       -14.0067   -3.2441   58.5786 H       1  ZINC000434204837    0.1300
     34 H34       -14.9256   -2.0894   60.5500 H       1  ZINC000434204837    0.1200
     35 H35       -13.4473   -0.7468   61.9904 H       1  ZINC000434204837    0.1300
     36 H36       -11.0499   -0.5593   61.4598 H       1  ZINC000434204837    0.1300
     37 H37        -9.1496   -1.5352   60.3193 H       1  ZINC000434204837    0.1200
     38 H38        -9.3780   -2.5996   58.9111 H       1  ZINC000434204837    0.1200
     39 H39       -11.1515    1.4188   55.4912 H       1  ZINC000434204837    0.1300
     40 H40       -10.6263    2.8466   56.4153 H       1  ZINC000434204837    0.1400
     41 H41        -6.0973   -0.4050   52.2006 H       1  ZINC000434204837    0.1400
     42 H42        -4.1714    0.8316   51.2953 H       1  ZINC000434204837    0.1400
     43 H43        -4.4090    4.3905   50.1454 H       1  ZINC000434204837    0.0800
     44 H44        -2.6973    2.5501   51.8775 H       1  ZINC000434204837    0.0600
     45 H45        -2.1639    4.0862   51.1532 H       1  ZINC000434204837    0.0600
     46 H46        -3.4310    4.0843   52.4034 H       1  ZINC000434204837    0.0600
     47 H47        -4.2709    2.5371   48.5038 H       1  ZINC000434204837    0.0600
     48 H48        -2.6544    3.1827   48.8760 H       1  ZINC000434204837    0.0600
     49 H49        -3.1877    1.6467   49.6003 H       1  ZINC000434204837    0.0600
     50 H50        -6.5993    4.3114   50.8598 H       1  ZINC000434204837    0.1400
     51 H51        -8.5326    3.0810   51.7577 H       1  ZINC000434204837    0.1400
@<TRIPOS>BOND
     1     1     2    1
     2     1    30    1
     3     1    31    1
     4     1    32    1
     5     2     7   ar
     6     2     3   ar
     7     3     4   ar
     8     3    33    1
     9     4     5   ar
    10     4    34    1
    11     5     6   ar
    12     5    35    1
    13     6     7   ar
    14     6    36    1
    15     7     8    1
    16     8     9    1
    17     8    37    1
    18     8    38    1
    19     9    29    1
    20     9    10    2
    21    10    11    1
    22    11    12    1
    23    11    28    2
    24    12    13    1
    25    12    39    1
    26    12    40    1
    27    13    14    1
    28    14    18    1
    29    14    15    2
    30    15    16    1
    31    16    17    2
    32    17    18    1
    33    18    19    1
    34    19    27   ar
    35    19    20   ar
    36    20    21   ar
    37    20    41    1
    38    21    22   ar
    39    21    42    1
    40    22    23    1
    41    22    26   ar
    42    23    24    1
    43    23    25    1
    44    23    43    1
    45    24    44    1
    46    24    45    1
    47    24    46    1
    48    25    47    1
    49    25    48    1
    50    25    49    1
    51    26    27   ar
    52    26    50    1
    53    27    51    1
    54    28    29    1
@<TRIPOS>SUBSTRUCTURE
     1 ZINC000434204837        1 TEMP              0 ****  ****    0 ROOT


##########                                Name:    ZINC000523153175
##########                DOCK_Rotatable_Bonds:                   9
##########                         Heavy_Atoms:                  30
##########                    Molecular_Weight:             413.603
##########                DOCK_Rotatable_Bonds:                   9
##########                       Formal_Charge:           0.0499987
##########                     HBond_Acceptors:                   5
##########                        HBond_Donors:                   1
##########                         Heavy_Atoms:                  30
##########                          Grid_Score:          -37.177475
##########                     Grid_vdw_energy:          -34.988598
##########                      Grid_es_energy:           -2.188879
##########           Internal_energy_repulsive:           34.188160

@<TRIPOS>MOLECULE
ZINC000523153175
 69 71 1 0 0
SMALL
USER_CHARGES


@<TRIPOS>ATOM
      1 C1        -14.5968    1.2925   47.7697 C.3     1  ZINC000523153175   -0.1500
      2 C2        -15.2877    0.8721   49.0686 C.3     1  ZINC000523153175   -0.0600
      3 C3        -15.9038   -0.5172   48.8919 C.3     1  ZINC000523153175   -0.1400
      4 C4        -14.2772    0.8351   50.1859 C.ar    1  ZINC000523153175   -0.0800
      5 C5        -13.5721   -0.3260   50.4420 C.ar    1  ZINC000523153175   -0.1100
      6 C6        -12.6450   -0.3599   51.4668 C.ar    1  ZINC000523153175   -0.1100
      7 C7        -12.4229    0.7675   52.2355 C.ar    1  ZINC000523153175   -0.0800
      8 C8        -11.4127    0.7303   53.3532 C.3     1  ZINC000523153175   -0.0300
      9 H9        -11.4112    1.6881   53.8735 H       1  ZINC000523153175    0.0800
     10 C10       -11.7801   -0.3834   54.3358 C.3     1  ZINC000523153175   -0.1500
     11 C11       -10.0219    0.4619   52.7747 C.3     1  ZINC000523153175   -0.1300
     12 C12        -9.5276    1.6946   52.0628 C.2     1  ZINC000523153175    0.5200
     13 O13       -10.1658    2.7243   52.1188 O.2     1  ZINC000523153175   -0.5300
     14 N14        -8.3760    1.6529   51.3636 N.am    1  ZINC000523153175   -0.6200
     15 C15        -7.8716    2.8466   50.6680 C.3     1  ZINC000523153175    0.1100
     16 C16        -6.4101    3.0651   51.0735 C.3     1  ZINC000523153175    0.0400
     17 N17        -5.6476    1.8340   50.8272 N.3     1  ZINC000523153175   -0.5100
     18 C18        -4.2107    2.0532   51.0404 C.3     1  ZINC000523153175    0.0600
     19 H19        -3.7410    1.1168   51.3415 H       1  ZINC000523153175    0.1100
     20 C20        -3.5723    2.5494   49.7415 C.3     1  ZINC000523153175   -0.1800
     21 C21        -4.0149    3.0840   52.1222 C.2     1  ZINC000523153175    0.5200
     22 O22        -3.6076    4.1906   51.8389 O.2     1  ZINC000523153175   -0.5200
     23 N23        -4.2927    2.7759   53.4046 N.am    1  ZINC000523153175   -0.7200
     24 C24        -4.1040    3.7785   54.4561 C.3     1  ZINC000523153175    0.1400
     25 C25        -4.6760    3.2584   55.7910 C.3     1  ZINC000523153175   -0.1300
     26 C26        -3.4498    2.6561   56.5208 C.3     1  ZINC000523153175   -0.1300
     27 C27        -2.3148    3.6442   56.1544 C.3     1  ZINC000523153175   -0.1300
     28 C28        -2.6026    4.0239   54.6872 C.3     1  ZINC000523153175   -0.1300
     29 C29        -6.1401    0.7269   51.6577 C.3     1  ZINC000523153175    0.0400
     30 C30        -7.5873    0.4142   51.2812 C.3     1  ZINC000523153175    0.1200
     31 C31       -13.1270    1.9289   51.9785 C.ar    1  ZINC000523153175   -0.1100
     32 C32       -14.0512    1.9640   50.9511 C.ar    1  ZINC000523153175   -0.1200
     33 H33       -15.3277    1.3192   46.9615 H       1  ZINC000523153175    0.0600
     34 H34       -14.1579    2.2822   47.8956 H       1  ZINC000523153175    0.0600
     35 H35       -13.8126    0.5755   47.5268 H       1  ZINC000523153175    0.0600
     36 H36       -16.0720    1.5891   49.3115 H       1  ZINC000523153175    0.0800
     37 H37       -15.1196   -1.2342   48.6490 H       1  ZINC000523153175    0.0600
     38 H38       -16.3959   -0.8167   49.8172 H       1  ZINC000523153175    0.0600
     39 H39       -16.6348   -0.4905   48.0837 H       1  ZINC000523153175    0.0600
     40 H40       -13.7456   -1.2067   49.8415 H       1  ZINC000523153175    0.1200
     41 H41       -12.0946   -1.2673   51.6674 H       1  ZINC000523153175    0.1200
     42 H42       -11.0494   -0.4103   55.1442 H       1  ZINC000523153175    0.0800
     43 H43       -12.7709   -0.1922   54.7478 H       1  ZINC000523153175    0.0600
     44 H44       -11.7816   -1.3412   53.8153 H       1  ZINC000523153175    0.0500
     45 H45        -9.3351    0.2088   53.5824 H       1  ZINC000523153175    0.0900
     46 H46       -10.0755   -0.3678   52.0699 H       1  ZINC000523153175    0.0900
     47 H47        -7.9340    2.6959   49.5902 H       1  ZINC000523153175    0.0800
     48 H48        -8.4648    3.7151   50.9541 H       1  ZINC000523153175    0.0900
     49 H49        -5.9870    3.8790   50.4847 H       1  ZINC000523153175    0.0900
     50 H50        -6.3604    3.3179   52.1326 H       1  ZINC000523153175    0.0400
     51 H51        -4.0420    3.4859   49.4405 H       1  ZINC000523153175    0.0700
     52 H52        -2.5062    2.7122   49.8997 H       1  ZINC000523153175    0.0700
     53 H53        -3.7139    1.8039   48.9590 H       1  ZINC000523153175    0.0700
     54 H54        -4.6173    1.8905   53.6313 H       1  ZINC000523153175    0.4000
     55 H55        -4.5958    4.7101   54.1760 H       1  ZINC000523153175    0.0900
     56 H56        -5.0997    4.0789   56.3701 H       1  ZINC000523153175    0.0700
     57 H57        -5.4278    2.4899   55.6102 H       1  ZINC000523153175    0.0700
     58 H58        -3.6126    2.6371   57.5984 H       1  ZINC000523153175    0.0700
     59 H59        -3.2288    1.6571   56.1448 H       1  ZINC000523153175    0.0700
     60 H60        -2.3569    4.5271   56.7922 H       1  ZINC000523153175    0.0700
     61 H61        -1.3432    3.1574   56.2389 H       1  ZINC000523153175    0.0700
     62 H62        -2.0143    3.3970   54.0170 H       1  ZINC000523153175    0.0700
     63 H63        -2.3660    5.0746   54.5200 H       1  ZINC000523153175    0.0800
     64 H64        -5.5211   -0.1550   51.4925 H       1  ZINC000523153175    0.1000
     65 H65        -6.0941    1.0123   52.7087 H       1  ZINC000523153175    0.0400
     66 H66        -7.9931   -0.3266   51.9701 H       1  ZINC000523153175    0.1000
     67 H67        -7.6257    0.0299   50.2618 H       1  ZINC000523153175    0.0800
     68 H68       -12.9532    2.8098   52.5788 H       1  ZINC000523153175    0.1200
     69 H69       -14.6013    2.8714   50.7503 H       1  ZINC000523153175    0.1200
@<TRIPOS>BOND
     1     1     2    1
     2     1    33    1
     3     1    34    1
     4     1    35    1
     5     2     3    1
     6     2     4    1
     7     2    36    1
     8     3    37    1
     9     3    38    1
    10     3    39    1
    11     4    32   ar
    12     4     5   ar
    13     5     6   ar
    14     5    40    1
    15     6     7   ar
    16     6    41    1
    17     7     8    1
    18     7    31   ar
    19     8     9    1
    20     8    10    1
    21     8    11    1
    22    10    42    1
    23    10    43    1
    24    10    44    1
    25    11    12    1
    26    11    45    1
    27    11    46    1
    28    12    13    2
    29    12    14   am
    30    14    30    1
    31    14    15    1
    32    15    16    1
    33    15    47    1
    34    15    48    1
    35    16    17    1
    36    16    49    1
    37    16    50    1
    38    17    18    1
    39    17    29    1
    40    18    19    1
    41    18    20    1
    42    18    21    1
    43    20    51    1
    44    20    52    1
    45    20    53    1
    46    21    22    2
    47    21    23   am
    48    23    24    1
    49    23    54    1
    50    24    28    1
    51    24    25    1
    52    24    55    1
    53    25    26    1
    54    25    56    1
    55    25    57    1
    56    26    27    1
    57    26    58    1
    58    26    59    1
    59    27    28    1
    60    27    60    1
    61    27    61    1
    62    28    62    1
    63    28    63    1
    64    29    30    1
    65    29    64    1
    66    29    65    1
    67    30    66    1
    68    30    67    1
    69    31    32   ar
    70    31    68    1
    71    32    69    1
@<TRIPOS>SUBSTRUCTURE
     1 ZINC000523153175        1 TEMP              0 ****  ****    0 ROOT


##########                                Name:     oleObject52.pdb
##########                DOCK_Rotatable_Bonds:                  10
##########                         Heavy_Atoms:                  38
##########                    Molecular_Weight:              533.07
##########                DOCK_Rotatable_Bonds:                  10
##########                       Formal_Charge:         0.000300027
##########                     HBond_Acceptors:                   8
##########                        HBond_Donors:                   0
##########                         Heavy_Atoms:                  38
##########                          Grid_Score:          -37.049416
##########                     Grid_vdw_energy:          -36.574070
##########                      Grid_es_energy:           -0.475346
##########           Internal_energy_repulsive:           27.095530

@<TRIPOS>MOLECULE
oleObject52.pdb
 71 74 1 0 0
SMALL
NO_CHARGES


@<TRIPOS>ATOM
      1 C         -14.8746   -4.9845   57.1650 C.ar    1  UNL        -0.0596
      2 C         -15.3067   -4.0204   58.0881 C.ar    1  UNL        -0.0314
      3 C         -14.6473   -2.7762   58.1818 C.ar    1  UNL         0.0800
      4 C         -13.5467   -2.4973   57.3386 C.ar    1  UNL         0.0089
      5 C         -13.1202   -3.4796   56.4190 C.ar    1  UNL        -0.0541
      6 C         -13.7807   -4.7143   56.3317 C.ar    1  UNL        -0.0617
      7 C         -12.8308   -1.1425   57.4500 C.3     1  UNL         0.0953
      8 C         -11.4463   -1.2621   58.1109 C.ar    1  UNL         0.0684
      9 C         -10.8150   -0.1553   58.7321 C.ar    1  UNL        -0.0272
     10 C          -9.5533   -0.3494   59.3250 C.ar    1  UNL        -0.0559
     11 C          -8.9669   -1.6224   59.2838 C.ar    1  UNL        -0.0435
     12 C          -9.6636   -2.6630   58.6517 C.ar    1  UNL         0.0272
     13 N         -10.8703   -2.4876   58.0818 N.ar    1  UNL        -0.2587
     14 C         -11.4620    1.2232   58.7913 C.3     1  UNL        -0.0379
     15 N         -12.8466   -0.3367   56.1957 N.am    1  UNL        -0.2917
     16 C         -11.7811   -0.4173   55.2926 C.2     1  UNL         0.2180
     17 O         -10.9661   -1.3207   55.3802 O.2     1  UNL        -0.2772
     18 C         -11.8674    0.4495   54.0104 C.3     1  UNL         0.0385
     19 C         -11.4226   -0.3313   52.7500 C.3     1  UNL        -0.0289
     20 C          -9.8916   -0.5239   52.6965 C.3     1  UNL        -0.0010
     21 N          -9.1778    0.7726   52.7586 N.4     1  UNL        -0.3010
     22 C          -9.5299    1.5659   53.9568 C.3     1  UNL        -0.0010
     23 C         -11.0573    1.7693   54.1112 C.3     1  UNL        -0.0289
     24 C          -7.7108    0.6684   52.5942 C.3     1  UNL         0.0222
     25 C          -7.2491    0.7573   51.1249 C.3     1  UNL         0.0661
     26 O          -7.0569    2.1476   50.8085 O.3     1  UNL        -0.3432
     27 C          -5.8842    2.8337   51.0582 C.ar    1  UNL         0.0937
     28 C          -4.6717    2.5012   50.4182 C.ar    1  UNL        -0.0289
     29 C          -3.5012    3.2249   50.7007 C.ar    1  UNL        -0.0417
     30 C          -3.5296    4.2853   51.6229 C.ar    1  UNL         0.0537
     31 C          -4.7353    4.6199   52.2623 C.ar    1  UNL        -0.0230
     32 C          -5.9073    3.8980   51.9817 C.ar    1  UNL         0.0721
     33 CL         -7.3922    4.3457   52.8002 Cl      1  UNL        -0.0814
     34 C          -2.3330    5.0228   51.9099 C.1     1  UNL         0.0992
     35 N          -1.3627    5.6102   52.1355 N.1     1  UNL        -0.1924
     36 C         -14.0052    0.5588   55.9867 C.3     1  UNL         0.0037
     37 O         -15.0493   -1.8122   59.0907 O.3     1  UNL        -0.3490
     38 C         -16.1473   -1.9827   60.0027 C.3     1  UNL         0.0422
     39 H         -15.3861   -5.9403   57.0978 H       1  UNL         0.0624
     40 H         -16.1536   -4.2527   58.7248 H       1  UNL         0.0651
     41 H         -12.2741   -3.2950   55.7662 H       1  UNL         0.0627
     42 H         -13.4434   -5.4609   55.6185 H       1  UNL         0.0623
     43 H         -13.4427   -0.5720   58.1576 H       1  UNL         0.0627
     44 H          -9.0371    0.4713   59.8149 H       1  UNL         0.0627
     45 H          -7.9958   -1.8010   59.7357 H       1  UNL         0.0639
     46 H          -9.2454   -3.6675   58.6020 H       1  UNL         0.0840
     47 H         -11.7852    1.5518   57.7980 H       1  UNL         0.0280
     48 H         -10.7684    1.9807   59.1767 H       1  UNL         0.0280
     49 H         -12.3409    1.2147   59.4483 H       1  UNL         0.0280
     50 H         -12.9133    0.7446   53.8760 H       1  UNL         0.0402
     51 H         -11.7366    0.2246   51.8571 H       1  UNL         0.0288
     52 H         -11.9235   -1.3049   52.6999 H       1  UNL         0.0288
     53 H          -9.6526   -1.0526   51.7666 H       1  UNL         0.0431
     54 H          -9.5765   -1.1600   53.5344 H       1  UNL         0.0431
     55 H          -9.0532    2.5530   53.9008 H       1  UNL         0.0431
     56 H          -9.1367    1.0682   54.8521 H       1  UNL         0.0431
     57 H         -11.3939    2.4476   53.3165 H       1  UNL         0.0288
     58 H         -11.2726    2.2735   55.0620 H       1  UNL         0.0288
     59 H          -7.3525   -0.2753   53.0261 H       1  UNL         0.0455
     60 H          -7.2280    1.4867   53.1444 H       1  UNL         0.0455
     61 H          -8.0183    0.3220   50.4742 H       1  UNL         0.0586
     62 H          -6.3089    0.2094   50.9890 H       1  UNL         0.0586
     63 H          -4.6234    1.6874   49.7018 H       1  UNL         0.0651
     64 H          -2.5726    2.9602   50.2015 H       1  UNL         0.0638
     65 H          -4.7654    5.4386   52.9766 H       1  UNL         0.0653
     66 H         -14.4346    0.8689   56.9462 H       1  UNL         0.0433
     67 H         -14.7764    0.0433   55.4014 H       1  UNL         0.0433
     68 H         -13.6950    1.4703   55.4627 H       1  UNL         0.0433
     69 H         -16.2582   -1.0837   60.6214 H       1  UNL         0.0535
     70 H         -15.9669   -2.8396   60.6641 H       1  UNL         0.0535
     71 H         -17.0827   -2.1426   59.4519 H       1  UNL         0.0535
@<TRIPOS>BOND
     1     1     2   ar
     2     1     6   ar
     3     1    39    1
     4     2     3   ar
     5     2    40    1
     6     3     4   ar
     7     3    37    1
     8     4     5   ar
     9     4     7    1
    10     5     6   ar
    11     5    41    1
    12     6    42    1
    13     7     8    1
    14     7    15    1
    15     7    43    1
    16     8     9   ar
    17     8    13   ar
    18     9    10   ar
    19     9    14    1
    20    10    11   ar
    21    10    44    1
    22    11    12   ar
    23    11    45    1
    24    12    13   ar
    25    12    46    1
    26    14    47    1
    27    14    48    1
    28    14    49    1
    29    15    16   am
    30    15    36    1
    31    16    17    2
    32    16    18    1
    33    18    19    1
    34    18    23    1
    35    18    50    1
    36    19    20    1
    37    19    51    1
    38    19    52    1
    39    20    21    1
    40    20    53    1
    41    20    54    1
    42    21    22    1
    43    21    24    1
    44    22    23    1
    45    22    55    1
    46    22    56    1
    47    23    57    1
    48    23    58    1
    49    24    25    1
    50    24    59    1
    51    24    60    1
    52    25    26    1
    53    25    61    1
    54    25    62    1
    55    26    27    1
    56    27    28   ar
    57    27    32   ar
    58    28    29   ar
    59    28    63    1
    60    29    30   ar
    61    29    64    1
    62    30    31   ar
    63    30    34    1
    64    31    32   ar
    65    31    65    1
    66    32    33    1
    67    34    35    3
    68    36    66    1
    69    36    67    1
    70    36    68    1
    71    37    38    1
    72    38    69    1
    73    38    70    1
    74    38    71    1
@<TRIPOS>SUBSTRUCTURE
     1 UNL         1 TEMP              0 ****  ****    0 ROOT


##########                                Name:    ZINC000489986384
##########                DOCK_Rotatable_Bonds:                  11
##########                         Heavy_Atoms:                  31
##########                    Molecular_Weight:             415.492
##########                DOCK_Rotatable_Bonds:                  11
##########                       Formal_Charge:          -0.0499997
##########                     HBond_Acceptors:                   6
##########                        HBond_Donors:                   2
##########                         Heavy_Atoms:                  31
##########                          Grid_Score:          -36.958801
##########                     Grid_vdw_energy:          -36.669647
##########                      Grid_es_energy:           -0.289155
##########           Internal_energy_repulsive:            9.928906

@<TRIPOS>MOLECULE
ZINC000489986384
 56 59 1 0 0
SMALL
USER_CHARGES


@<TRIPOS>ATOM
      1 O1         -7.5818    1.4559   56.3044 O.2     1  ZINC000489986384   -0.5000
      2 C2         -8.7751    1.4303   56.0891 C.2     1  ZINC000489986384    0.4900
      3 C3         -9.3041    1.8138   54.7312 C.3     1  ZINC000489986384    0.0900
      4 N4         -9.7735    0.6143   54.0333 N.pl3   1  ZINC000489986384   -0.4700
      5 C5        -10.9982   -0.0014   54.1975 C.ar    1  ZINC000489986384    0.0700
      6 C6        -12.1095    0.2528   54.9891 C.ar    1  ZINC000489986384   -0.1100
      7 C7        -13.2061   -0.5800   54.9145 C.ar    1  ZINC000489986384   -0.0900
      8 C8        -13.2050   -1.6687   54.0547 C.ar    1  ZINC000489986384   -0.1300
      9 C9        -12.1197   -1.9347   53.2683 C.ar    1  ZINC000489986384   -0.0600
     10 C10       -10.9977   -1.1043   53.3264 C.ar    1  ZINC000489986384    0.0500
     11 N11        -9.7984   -1.1045   52.6897 N.2     1  ZINC000489986384   -0.4600
     12 C12        -9.0857   -0.0959   53.0988 C.2     1  ZINC000489986384    0.2800
     13 C13        -7.6961    0.2314   52.6162 C.3     1  ZINC000489986384    0.1400
     14 O14        -7.7771    1.0993   51.4838 O.3     1  ZINC000489986384   -0.3000
     15 C15        -6.6930    1.8761   51.2230 C.ar    1  ZINC000489986384    0.1300
     16 C16        -6.8627    3.1837   50.7920 C.ar    1  ZINC000489986384   -0.2100
     17 C17        -5.7589    3.9715   50.5280 C.ar    1  ZINC000489986384   -0.0800
     18 C18        -4.4860    3.4576   50.6926 C.ar    1  ZINC000489986384   -0.1600
     19 C19        -4.3141    2.1545   51.1216 C.ar    1  ZINC000489986384   -0.0800
     20 C20        -5.4146    1.3645   51.3928 C.ar    1  ZINC000489986384   -0.1500
     21 N21        -9.6277    1.0534   57.0626 N.am    1  ZINC000489986384   -0.7300
     22 C22        -9.1134    0.6806   58.3827 C.3     1  ZINC000489986384    0.1300
     23 C23       -10.2178   -0.0126   59.1831 C.3     1  ZINC000489986384   -0.0600
     24 H24       -11.1643    0.5021   59.0175 H       1  ZINC000489986384    0.0900
     25 C25       -10.3419   -1.4676   58.7267 C.3     1  ZINC000489986384    0.0800
     26 O26       -11.2431   -2.1627   59.5909 O.3     1  ZINC000489986384   -0.5700
     27 C27        -9.8749    0.0262   60.6501 C.ar    1  ZINC000489986384   -0.0700
     28 C28        -8.8880   -0.8018   61.1513 C.ar    1  ZINC000489986384   -0.1100
     29 C29        -8.5735   -0.7662   62.4970 C.ar    1  ZINC000489986384   -0.1200
     30 C30        -9.2456    0.0977   63.3412 C.ar    1  ZINC000489986384   -0.1200
     31 C31       -10.2319    0.9264   62.8399 C.ar    1  ZINC000489986384   -0.1200
     32 C32       -10.5435    0.8939   61.4934 C.ar    1  ZINC000489986384   -0.1100
     33 H33       -10.1319    2.5135   54.8479 H       1  ZINC000489986384    0.1200
     34 H34        -8.5100    2.2841   54.1513 H       1  ZINC000489986384    0.1200
     35 H35       -12.1153    1.0986   55.6606 H       1  ZINC000489986384    0.1200
     36 H36       -14.0716   -0.3835   55.5299 H       1  ZINC000489986384    0.1300
     37 H37       -14.0705   -2.3129   54.0068 H       1  ZINC000489986384    0.1300
     38 H38       -12.1291   -2.7854   52.6031 H       1  ZINC000489986384    0.1300
     39 H39        -7.1415    0.7256   53.4139 H       1  ZINC000489986384    0.0800
     40 H40        -7.1837   -0.6881   52.3332 H       1  ZINC000489986384    0.1000
     41 H41        -7.8568    3.5854   50.6627 H       1  ZINC000489986384    0.1300
     42 H42        -5.8905    4.9896   50.1925 H       1  ZINC000489986384    0.1300
     43 H43        -3.6244    4.0750   50.4854 H       1  ZINC000489986384    0.1200
     44 H44        -3.3188    1.7552   51.2491 H       1  ZINC000489986384    0.1300
     45 H45        -5.2799    0.3467   51.7280 H       1  ZINC000489986384    0.1300
     46 H46       -10.5817    1.0291   56.8891 H       1  ZINC000489986384    0.4000
     47 H47        -8.2690    0.0014   58.2652 H       1  ZINC000489986384    0.0800
     48 H48        -8.7884    1.5761   58.9123 H       1  ZINC000489986384    0.0800
     49 H49       -10.7223   -1.4970   57.7057 H       1  ZINC000489986384    0.0500
     50 H50        -9.3626   -1.9447   58.7634 H       1  ZINC000489986384    0.0500
     51 H51       -10.9415   -2.2223   60.5078 H       1  ZINC000489986384    0.3800
     52 H52        -8.3630   -1.4767   60.4917 H       1  ZINC000489986384    0.1200
     53 H53        -7.8029   -1.4136   62.8887 H       1  ZINC000489986384    0.1200
     54 H54        -9.0003    0.1251   64.3927 H       1  ZINC000489986384    0.1200
     55 H55       -10.7571    1.6012   63.4995 H       1  ZINC000489986384    0.1200
     56 H56       -11.3140    1.5413   61.1017 H       1  ZINC000489986384    0.1200
@<TRIPOS>BOND
     1     1     2    2
     2     2     3    1
     3     2    21   am
     4     3     4    1
     5     3    33    1
     6     3    34    1
     7     4    12    1
     8     4     5    1
     9     5    10   ar
    10     5     6   ar
    11     6     7   ar
    12     6    35    1
    13     7     8   ar
    14     7    36    1
    15     8     9   ar
    16     8    37    1
    17     9    10   ar
    18     9    38    1
    19    10    11    1
    20    11    12    2
    21    12    13    1
    22    13    14    1
    23    13    39    1
    24    13    40    1
    25    14    15    1
    26    15    20   ar
    27    15    16   ar
    28    16    17   ar
    29    16    41    1
    30    17    18   ar
    31    17    42    1
    32    18    19   ar
    33    18    43    1
    34    19    20   ar
    35    19    44    1
    36    20    45    1
    37    21    22    1
    38    21    46    1
    39    22    23    1
    40    22    47    1
    41    22    48    1
    42    23    24    1
    43    23    25    1
    44    23    27    1
    45    25    26    1
    46    25    49    1
    47    25    50    1
    48    26    51    1
    49    27    32   ar
    50    27    28   ar
    51    28    29   ar
    52    28    52    1
    53    29    30   ar
    54    29    53    1
    55    30    31   ar
    56    30    54    1
    57    31    32   ar
    58    31    55    1
    59    32    56    1
@<TRIPOS>SUBSTRUCTURE
     1 ZINC000489986384        1 TEMP              0 ****  ****    0 ROOT


##########                                Name:    ZINC000471198073
##########                DOCK_Rotatable_Bonds:                  12
##########                         Heavy_Atoms:                  30
##########                    Molecular_Weight:             409.528
##########                DOCK_Rotatable_Bonds:                  12
##########                       Formal_Charge:          -0.0399998
##########                     HBond_Acceptors:                   6
##########                        HBond_Donors:                   3
##########                         Heavy_Atoms:                  30
##########                          Grid_Score:          -36.900871
##########                     Grid_vdw_energy:          -36.410034
##########                      Grid_es_energy:           -0.490838
##########           Internal_energy_repulsive:           37.110390

@<TRIPOS>MOLECULE
ZINC000471198073
 61 62 1 0 0
SMALL
USER_CHARGES


@<TRIPOS>ATOM
      1 C1        -10.6300   -3.0106   59.3076 C.3     1  ZINC000471198073   -0.1400
      2 C2        -11.3258   -1.8548   58.5859 C.3     1  ZINC000471198073   -0.1100
      3 C3        -10.7148   -0.5279   59.0409 C.3     1  ZINC000471198073   -0.1500
      4 C4        -11.1423   -2.0083   57.0981 C.2     1  ZINC000471198073    0.5200
      5 O5        -10.7597   -3.0641   56.6400 O.2     1  ZINC000471198073   -0.5200
      6 N6        -11.4034   -0.9723   56.2764 N.am    1  ZINC000471198073   -0.6700
      7 C7        -11.2330   -1.1149   54.8949 C.ar    1  ZINC000471198073    0.1600
      8 C8        -11.7886   -2.2033   54.2345 C.ar    1  ZINC000471198073   -0.1500
      9 C9        -11.6212   -2.3449   52.8701 C.ar    1  ZINC000471198073   -0.0800
     10 C10       -10.9014   -1.4053   52.1583 C.ar    1  ZINC000471198073   -0.1300
     11 C11       -10.3424   -0.3140   52.8131 C.ar    1  ZINC000471198073    0.1500
     12 N12        -9.6138    0.6361   52.0928 N.am    1  ZINC000471198073   -0.6400
     13 C13        -8.2760    0.5166   51.9812 C.2     1  ZINC000471198073    0.5100
     14 O14        -7.7041   -0.4163   52.5062 O.2     1  ZINC000471198073   -0.5000
     15 C15        -7.4973    1.5321   51.2111 C.2     1  ZINC000471198073    0.5100
     16 O16        -8.0695    2.2919   50.4574 O.2     1  ZINC000471198073   -0.5100
     17 N17        -6.1590    1.6047   51.3533 N.am    1  ZINC000471198073   -0.7000
     18 C18        -5.3949    2.5997   50.5967 C.3     1  ZINC000471198073    0.1200
     19 C19        -3.9780    2.6955   51.1660 C.3     1  ZINC000471198073   -0.0900
     20 H20        -3.7627    1.8049   51.7565 H       1  ZINC000471198073    0.0800
     21 C21        -2.9728    2.8012   50.0174 C.3     1  ZINC000471198073   -0.0800
     22 C22        -1.6091    3.1243   50.5715 C.ar    1  ZINC000471198073   -0.0800
     23 C23        -1.1740    2.5169   51.7345 C.ar    1  ZINC000471198073   -0.1200
     24 C24         0.0769    2.8133   52.2428 C.ar    1  ZINC000471198073   -0.1200
     25 C25         0.8928    3.7168   51.5878 C.ar    1  ZINC000471198073   -0.1200
     26 C26         0.4580    4.3235   50.4243 C.ar    1  ZINC000471198073   -0.1200
     27 C27        -0.7911    4.0238   49.9137 C.ar    1  ZINC000471198073   -0.1200
     28 C28        -3.8686    3.9357   52.0553 C.3     1  ZINC000471198073   -0.1000
     29 C29        -3.9511    5.1937   51.1883 C.3     1  ZINC000471198073   -0.1600
     30 C30        -5.0143    3.9391   53.0693 C.3     1  ZINC000471198073   -0.1700
     31 C31       -10.5136   -0.1662   54.1824 C.ar    1  ZINC000471198073   -0.1400
     32 H32       -10.7628   -2.8996   60.3837 H       1  ZINC000471198073    0.0700
     33 H33       -11.0654   -3.9560   58.9835 H       1  ZINC000471198073    0.0600
     34 H34        -9.5664   -2.9998   59.0697 H       1  ZINC000471198073    0.0600
     35 H35       -12.3894   -1.8655   58.8239 H       1  ZINC000471198073    0.1000
     36 H36        -9.6512   -0.5171   58.8030 H       1  ZINC000471198073    0.0600
     37 H37       -11.2105    0.2956   58.5268 H       1  ZINC000471198073    0.0600
     38 H38       -10.8476   -0.4168   60.1171 H       1  ZINC000471198073    0.0700
     39 H39       -11.7093   -0.1279   56.6427 H       1  ZINC000471198073    0.4100
     40 H40       -12.3518   -2.9401   54.7881 H       1  ZINC000471198073    0.1300
     41 H41       -12.0540   -3.1923   52.3591 H       1  ZINC000471198073    0.1300
     42 H42       -10.7723   -1.5187   51.0921 H       1  ZINC000471198073    0.1400
     43 H43       -10.0709    1.3817   51.6730 H       1  ZINC000471198073    0.4200
     44 H44        -5.7017    0.9982   51.9566 H       1  ZINC000471198073    0.4200
     45 H45        -5.3462    2.3010   49.5496 H       1  ZINC000471198073    0.0700
     46 H46        -5.8844    3.5703   50.6752 H       1  ZINC000471198073    0.0800
     47 H47        -2.9321    1.8526   49.4819 H       1  ZINC000471198073    0.0800
     48 H48        -3.2839    3.5912   49.3340 H       1  ZINC000471198073    0.0800
     49 H49        -1.8114    1.8111   52.2463 H       1  ZINC000471198073    0.1200
     50 H50         0.4166    2.3394   53.1518 H       1  ZINC000471198073    0.1200
     51 H51         1.8698    3.9489   51.9852 H       1  ZINC000471198073    0.1200
     52 H52         1.0953    5.0295   49.9127 H       1  ZINC000471198073    0.1200
     53 H53        -1.1309    4.4978   49.0046 H       1  ZINC000471198073    0.1200
     54 H54        -2.9154    3.9207   52.5840 H       1  ZINC000471198073    0.0800
     55 H55        -4.9409    5.2594   50.7366 H       1  ZINC000471198073    0.0600
     56 H56        -3.7750    6.0736   51.8072 H       1  ZINC000471198073    0.0600
     57 H57        -3.1962    5.1444   50.4036 H       1  ZINC000471198073    0.0600
     58 H58        -5.0322    2.9873   53.6003 H       1  ZINC000471198073    0.0600
     59 H59        -4.8661    4.7502   53.7822 H       1  ZINC000471198073    0.0600
     60 H60        -5.9606    4.0821   52.5477 H       1  ZINC000471198073    0.0700
     61 H61       -10.0803    0.6808   54.6937 H       1  ZINC000471198073    0.1400
@<TRIPOS>BOND
     1     1     2    1
     2     1    32    1
     3     1    33    1
     4     1    34    1
     5     2     3    1
     6     2     4    1
     7     2    35    1
     8     3    36    1
     9     3    37    1
    10     3    38    1
    11     4     5    2
    12     4     6   am
    13     6     7    1
    14     6    39    1
    15     7    31   ar
    16     7     8   ar
    17     8     9   ar
    18     8    40    1
    19     9    10   ar
    20     9    41    1
    21    10    11   ar
    22    10    42    1
    23    11    12    1
    24    11    31   ar
    25    12    13   am
    26    12    43    1
    27    13    14    2
    28    13    15    1
    29    15    16    2
    30    15    17   am
    31    17    18    1
    32    17    44    1
    33    18    19    1
    34    18    45    1
    35    18    46    1
    36    19    20    1
    37    19    21    1
    38    19    28    1
    39    21    22    1
    40    21    47    1
    41    21    48    1
    42    22    27   ar
    43    22    23   ar
    44    23    24   ar
    45    23    49    1
    46    24    25   ar
    47    24    50    1
    48    25    26   ar
    49    25    51    1
    50    26    27   ar
    51    26    52    1
    52    27    53    1
    53    28    29    1
    54    28    30    1
    55    28    54    1
    56    29    55    1
    57    29    56    1
    58    29    57    1
    59    30    58    1
    60    30    59    1
    61    30    60    1
    62    31    61    1
@<TRIPOS>SUBSTRUCTURE
     1 ZINC000471198073        1 TEMP              0 ****  ****    0 ROOT


##########                                Name:    ZINC000011620562
##########                DOCK_Rotatable_Bonds:                   9
##########                         Heavy_Atoms:                  29
##########                    Molecular_Weight:             417.448
##########                DOCK_Rotatable_Bonds:                   9
##########                       Formal_Charge:           0.0299999
##########                     HBond_Acceptors:                  12
##########                        HBond_Donors:                   1
##########                         Heavy_Atoms:                  29
##########                          Grid_Score:          -36.888672
##########                     Grid_vdw_energy:          -36.353359
##########                      Grid_es_energy:           -0.535312
##########           Internal_energy_repulsive:            8.463794

@<TRIPOS>MOLECULE
ZINC000011620562
 48 50 1 0 0
SMALL
USER_CHARGES


@<TRIPOS>ATOM
      1 C1         -9.4536    0.1159   62.4706 C.3     1  ZINC000011620562    0.0400
      2 O2         -8.7738   -0.9788   61.8015 O.3     1  ZINC000011620562   -0.3500
      3 C3         -8.9630   -1.0954   60.4776 C.2     1  ZINC000011620562    0.4600
      4 O4         -8.5624   -2.0747   59.8941 O.2     1  ZINC000011620562   -0.5000
      5 C5         -9.6750   -0.0050   59.7193 C.3     1  ZINC000011620562    0.1300
      6 N6         -9.9171   -0.4454   58.3432 N.am    1  ZINC000011620562   -0.7200
      7 C7        -11.1361   -0.8945   57.9840 C.2     1  ZINC000011620562    0.5400
      8 O8        -12.0329   -0.9326   58.7996 O.2     1  ZINC000011620562   -0.5200
      9 C9        -11.3847   -1.3491   56.5689 C.3     1  ZINC000011620562   -0.1600
     10 S10       -10.5989   -0.1946   55.4176 S.3     1  ZINC000011620562    0.1400
     11 C11       -10.9731   -0.9856   53.8881 C.2     1  ZINC000011620562    0.2100
     12 N12       -11.7025   -2.0688   53.7256 N.2     1  ZINC000011620562   -0.3400
     13 N13       -11.7773   -2.3780   52.4815 N.2     1  ZINC000011620562   -0.0300
     14 N14       -11.1148   -1.5331   51.7683 N.2     1  ZINC000011620562   -0.0800
     15 N15       -10.5690   -0.5897   52.6564 N.pl3   1  ZINC000011620562   -0.2600
     16 C16        -9.7684    0.5235   52.3357 C.2     1  ZINC000011620562   -0.1300
     17 C17       -10.1910    1.8041   52.2344 C.2     1  ZINC000011620562    0.2500
     18 C18       -11.6030    2.2862   52.4456 C.3     1  ZINC000011620562   -0.1100
     19 N19        -9.1172    2.5878   51.9075 N.pl3   1  ZINC000011620562   -0.3700
     20 C20        -9.1435    4.0382   51.7034 C.3     1  ZINC000011620562    0.0900
     21 N21        -7.9889    1.7642   51.8023 N.am    1  ZINC000011620562   -0.3600
     22 C22        -6.6921    2.1799   51.4842 C.ar    1  ZINC000011620562    0.1400
     23 C23        -6.3547    2.4601   50.1662 C.ar    1  ZINC000011620562   -0.1300
     24 C24        -5.0734    2.8710   49.8555 C.ar    1  ZINC000011620562   -0.1000
     25 C25        -4.1267    3.0036   50.8548 C.ar    1  ZINC000011620562   -0.1100
     26 C26        -4.4592    2.7251   52.1678 C.ar    1  ZINC000011620562   -0.1000
     27 C27        -5.7404    2.3193   52.4861 C.ar    1  ZINC000011620562   -0.1000
     28 C28        -8.3752    0.4998   52.0679 C.2     1  ZINC000011620562    0.5500
     29 O29        -7.6594   -0.4853   52.0701 O.2     1  ZINC000011620562   -0.5000
     30 H30       -10.5303    0.0110   62.3366 H       1  ZINC000011620562    0.0700
     31 H31        -9.2161    0.0952   63.5342 H       1  ZINC000011620562    0.1100
     32 H32        -9.1248    1.0632   62.0432 H       1  ZINC000011620562    0.0700
     33 H33       -10.6268    0.2127   60.2039 H       1  ZINC000011620562    0.1200
     34 H34        -9.0580    0.8936   59.7100 H       1  ZINC000011620562    0.1200
     35 H35        -9.2003   -0.4136   57.6906 H       1  ZINC000011620562    0.4200
     36 H36       -10.9647   -2.3450   56.4281 H       1  ZINC000011620562    0.1400
     37 H37       -12.4578   -1.3772   56.3795 H       1  ZINC000011620562    0.1400
     38 H38       -12.2427    1.4395   52.6948 H       1  ZINC000011620562    0.1000
     39 H39       -11.6222    3.0086   53.2616 H       1  ZINC000011620562    0.1000
     40 H40       -11.9656    2.7593   51.5330 H       1  ZINC000011620562    0.1000
     41 H41       -10.1645    4.4027   51.8171 H       1  ZINC000011620562    0.1100
     42 H42        -8.5014    4.5206   52.4404 H       1  ZINC000011620562    0.0900
     43 H43        -8.7843    4.2706   50.7009 H       1  ZINC000011620562    0.0900
     44 H44        -7.0936    2.3563   49.3853 H       1  ZINC000011620562    0.1300
     45 H45        -4.8103    3.0886   48.8308 H       1  ZINC000011620562    0.1300
     46 H46        -3.1254    3.3251   50.6090 H       1  ZINC000011620562    0.1300
     47 H47        -3.7174    2.8290   52.9457 H       1  ZINC000011620562    0.1400
     48 H48        -5.9995    2.1022   53.5118 H       1  ZINC000011620562    0.1400
@<TRIPOS>BOND
     1     1     2    1
     2     1    30    1
     3     1    31    1
     4     1    32    1
     5     2     3    1
     6     3     4    2
     7     3     5    1
     8     5     6    1
     9     5    33    1
    10     5    34    1
    11     6     7   am
    12     6    35    1
    13     7     8    2
    14     7     9    1
    15     9    10    1
    16     9    36    1
    17     9    37    1
    18    10    11    1
    19    11    15    1
    20    11    12    2
    21    12    13    1
    22    13    14    2
    23    14    15    1
    24    15    16    1
    25    16    28    1
    26    16    17    2
    27    17    18    1
    28    17    19    1
    29    18    38    1
    30    18    39    1
    31    18    40    1
    32    19    20    1
    33    19    21    1
    34    20    41    1
    35    20    42    1
    36    20    43    1
    37    21    22    1
    38    21    28   am
    39    22    27   ar
    40    22    23   ar
    41    23    24   ar
    42    23    44    1
    43    24    25   ar
    44    24    45    1
    45    25    26   ar
    46    25    46    1
    47    26    27   ar
    48    26    47    1
    49    27    48    1
    50    28    29    2
@<TRIPOS>SUBSTRUCTURE
     1 ZINC000011620562        1 TEMP              0 ****  ****    0 ROOT


##########                                Name:    ZINC000546142192
##########                DOCK_Rotatable_Bonds:                  12
##########                         Heavy_Atoms:                  31
##########                    Molecular_Weight:             420.511
##########                DOCK_Rotatable_Bonds:                  12
##########                       Formal_Charge:          -0.0599997
##########                     HBond_Acceptors:                   7
##########                        HBond_Donors:                   2
##########                         Heavy_Atoms:                  31
##########                          Grid_Score:          -36.805054
##########                     Grid_vdw_energy:          -37.424881
##########                      Grid_es_energy:            0.619828
##########           Internal_energy_repulsive:           14.583456

@<TRIPOS>MOLECULE
ZINC000546142192
 59 61 1 0 0
SMALL
USER_CHARGES


@<TRIPOS>ATOM
      1 C1        -15.7882   -3.5482   59.2781 C.3     1  ZINC000546142192    0.0300
      2 O2        -16.1515   -3.2355   57.9074 O.3     1  ZINC000546142192   -0.3600
      3 C3        -15.5218   -3.9190   56.9389 C.2     1  ZINC000546142192    0.4600
      4 O4        -15.2225   -5.0766   57.1133 O.2     1  ZINC000546142192   -0.5100
      5 C5        -15.1883   -3.2428   55.6341 C.3     1  ZINC000546142192   -0.0800
      6 H6        -14.5220   -3.8810   55.0540 H       1  ZINC000546142192    0.1100
      7 C7        -16.4751   -2.9969   54.8437 C.3     1  ZINC000546142192   -0.1500
      8 C8        -14.4984   -1.9062   55.9143 C.3     1  ZINC000546142192   -0.0600
      9 C9        -13.3663   -1.7111   54.9389 C.ar    1  ZINC000546142192   -0.1000
     10 C10       -13.4447   -0.7172   53.9807 C.ar    1  ZINC000546142192   -0.0900
     11 C11       -12.4087   -0.5356   53.0855 C.ar    1  ZINC000546142192   -0.1200
     12 C12       -11.2874   -1.3523   53.1487 C.ar    1  ZINC000546142192    0.1600
     13 N13       -10.2357   -1.1706   52.2435 N.am    1  ZINC000546142192   -0.6900
     14 C14        -9.2510   -0.2935   52.5219 C.2     1  ZINC000546142192    0.7100
     15 O15        -9.2764    0.3398   53.5595 O.2     1  ZINC000546142192   -0.5700
     16 N16        -8.2381   -0.1185   51.6502 N.am    1  ZINC000546142192   -0.7400
     17 C17        -7.1686    0.8361   51.9521 C.3     1  ZINC000546142192    0.2300
     18 C18        -7.5003    2.1724   51.3394 C.2     1  ZINC000546142192    0.1800
     19 N19        -8.6938    2.6920   51.2482 N.2     1  ZINC000546142192   -0.4700
     20 C20        -8.6108    3.8884   50.6476 C.2     1  ZINC000546142192   -0.0300
     21 C21        -7.3165    4.1190   50.3555 C.2     1  ZINC000546142192   -0.0400
     22 N22        -6.6109    3.0331   50.7990 N.pl3   1  ZINC000546142192   -0.4500
     23 C23        -5.1625    2.8372   50.6984 C.3     1  ZINC000546142192    0.1100
     24 C24        -4.5352    2.9473   52.0894 C.3     1  ZINC000546142192   -0.0900
     25 C25        -3.0339    2.8921   51.9693 C.ar    1  ZINC000546142192   -0.0900
     26 C26        -2.2414    3.5100   52.9184 C.ar    1  ZINC000546142192   -0.1100
     27 C27        -0.8643    3.4593   52.8081 C.ar    1  ZINC000546142192   -0.1200
     28 C28        -0.2800    2.7903   51.7489 C.ar    1  ZINC000546142192   -0.1200
     29 C29        -1.0726    2.1716   50.8003 C.ar    1  ZINC000546142192   -0.1200
     30 C30        -2.4495    2.2187   50.9129 C.ar    1  ZINC000546142192   -0.1100
     31 C31       -11.2117   -2.3495   54.1122 C.ar    1  ZINC000546142192   -0.1500
     32 C32       -12.2488   -2.5226   55.0076 C.ar    1  ZINC000546142192   -0.0900
     33 H33       -14.7259   -3.3539   59.4256 H       1  ZINC000546142192    0.0600
     34 H34       -16.3693   -2.9263   59.9589 H       1  ZINC000546142192    0.1000
     35 H35       -15.9966   -4.5991   59.4783 H       1  ZINC000546142192    0.0600
     36 H36       -17.1414   -2.3585   55.4238 H       1  ZINC000546142192    0.0600
     37 H37       -16.2338   -2.5076   53.9000 H       1  ZINC000546142192    0.0800
     38 H38       -16.9665   -3.9490   54.6442 H       1  ZINC000546142192    0.0700
     39 H39       -15.2182   -1.0953   55.8023 H       1  ZINC000546142192    0.0800
     40 H40       -14.1060   -1.9059   56.9312 H       1  ZINC000546142192    0.0800
     41 H41       -14.3172   -0.0826   53.9319 H       1  ZINC000546142192    0.1300
     42 H42       -12.4707    0.2406   52.3372 H       1  ZINC000546142192    0.1400
     43 H43       -10.2155   -1.6758   51.4157 H       1  ZINC000546142192    0.4100
     44 H44        -8.2171   -0.6247   50.8231 H       1  ZINC000546142192    0.4000
     45 H45        -7.0735    0.9455   53.0326 H       1  ZINC000546142192    0.0800
     46 H46        -6.2282    0.4707   51.5397 H       1  ZINC000546142192    0.1000
     47 H47        -9.4370    4.5508   50.4354 H       1  ZINC000546142192    0.1700
     48 H48        -6.9124    4.9942   49.8688 H       1  ZINC000546142192    0.1800
     49 H49        -4.9573    1.8500   50.2842 H       1  ZINC000546142192    0.1000
     50 H50        -4.7372    3.6002   50.0465 H       1  ZINC000546142192    0.0900
     51 H51        -4.8287    3.8923   52.5467 H       1  ZINC000546142192    0.0800
     52 H52        -4.8806    2.1206   52.7103 H       1  ZINC000546142192    0.0800
     53 H53        -2.6980    4.0327   53.7459 H       1  ZINC000546142192    0.1200
     54 H54        -0.2452    3.9426   53.5494 H       1  ZINC000546142192    0.1200
     55 H55         0.7959    2.7513   51.6625 H       1  ZINC000546142192    0.1200
     56 H56        -0.6160    1.6492   49.9727 H       1  ZINC000546142192    0.1200
     57 H57        -3.0688    1.7353   50.1718 H       1  ZINC000546142192    0.1200
     58 H58       -10.3408   -2.9863   54.1638 H       1  ZINC000546142192    0.1300
     59 H59       -12.1903   -3.2977   55.7576 H       1  ZINC000546142192    0.1300
@<TRIPOS>BOND
     1     1     2    1
     2     1    33    1
     3     1    34    1
     4     1    35    1
     5     2     3    1
     6     3     4    2
     7     3     5    1
     8     5     6    1
     9     5     7    1
    10     5     8    1
    11     7    36    1
    12     7    37    1
    13     7    38    1
    14     8     9    1
    15     8    39    1
    16     8    40    1
    17     9    32   ar
    18     9    10   ar
    19    10    11   ar
    20    10    41    1
    21    11    12   ar
    22    11    42    1
    23    12    13    1
    24    12    31   ar
    25    13    14   am
    26    13    43    1
    27    14    15    2
    28    14    16   am
    29    16    17    1
    30    16    44    1
    31    17    18    1
    32    17    45    1
    33    17    46    1
    34    18    22    1
    35    18    19    2
    36    19    20    1
    37    20    21    2
    38    20    47    1
    39    21    22    1
    40    21    48    1
    41    22    23    1
    42    23    24    1
    43    23    49    1
    44    23    50    1
    45    24    25    1
    46    24    51    1
    47    24    52    1
    48    25    30   ar
    49    25    26   ar
    50    26    27   ar
    51    26    53    1
    52    27    28   ar
    53    27    54    1
    54    28    29   ar
    55    28    55    1
    56    29    30   ar
    57    29    56    1
    58    30    57    1
    59    31    32   ar
    60    31    58    1
    61    32    59    1
@<TRIPOS>SUBSTRUCTURE
     1 ZINC000546142192        1 TEMP              0 ****  ****    0 ROOT


##########                                Name:    ZINC001596273020
##########                DOCK_Rotatable_Bonds:                  11
##########                         Heavy_Atoms:                  25
##########                    Molecular_Weight:             355.478
##########                DOCK_Rotatable_Bonds:                  11
##########                       Formal_Charge:          -0.0499996
##########                     HBond_Acceptors:                   7
##########                        HBond_Donors:                   2
##########                         Heavy_Atoms:                  25
##########                          Grid_Score:          -36.801662
##########                     Grid_vdw_energy:          -33.589935
##########                      Grid_es_energy:           -3.211727
##########           Internal_energy_repulsive:           24.868620

@<TRIPOS>MOLECULE
ZINC001596273020
 58 59 1 0 0
SMALL
USER_CHARGES


@<TRIPOS>ATOM
      1 C1         -4.0169    3.2356   51.4541 C.3     1  ZINC001596273020   -0.1900
      2 C2         -4.6327    1.8992   51.0352 C.3     1  ZINC001596273020   -0.0200
      3 N3         -5.8689    1.6700   51.7951 N.4     1  ZINC001596273020   -0.3900
      4 H4         -5.6648    1.6895   52.7831 H       1  ZINC001596273020    0.4300
      5 C5         -6.8424    2.7226   51.4754 C.3     1  ZINC001596273020   -0.0100
      6 C6         -7.0375    2.7934   49.9595 C.3     1  ZINC001596273020   -0.1900
      7 C7         -6.4285    0.3600   51.4364 C.3     1  ZINC001596273020   -0.0100
      8 C8         -7.5480   -0.0016   52.4146 C.3     1  ZINC001596273020    0.0300
      9 O9         -8.8129    0.1448   51.7659 O.3     1  ZINC001596273020   -0.3900
     10 C10        -9.9023    0.3748   52.6617 C.3     1  ZINC001596273020    0.0500
     11 C11       -10.5556   -0.9605   53.0236 C.3     1  ZINC001596273020    0.1400
     12 N12       -11.1601   -0.8636   54.3545 N.am    1  ZINC001596273020   -0.7500
     13 C13       -11.3558   -1.9770   55.0885 C.2     1  ZINC001596273020    0.7200
     14 O14       -11.0319   -3.0620   54.6454 O.2     1  ZINC001596273020   -0.6000
     15 N15       -11.9105   -1.8877   56.3135 N.am    1  ZINC001596273020   -0.6300
     16 C16       -12.1952   -2.9902   57.2650 C.3     1  ZINC001596273020    0.1100
     17 C17       -11.7844   -2.3976   58.6438 C.3     1  ZINC001596273020   -0.0800
     18 H18       -12.4262   -2.8047   59.4251 H       1  ZINC001596273020    0.1200
     19 C19       -10.3460   -2.7994   58.9025 C.3     1  ZINC001596273020   -0.1000
     20 C20        -9.5939   -1.7886   59.7569 C.3     1  ZINC001596273020   -0.1200
     21 C21        -9.6272   -0.4360   59.0332 C.3     1  ZINC001596273020   -0.1200
     22 C22       -11.0675    0.0654   59.0584 C.3     1  ZINC001596273020   -0.0800
     23 C23       -12.0412   -0.9144   58.4932 C.3     1  ZINC001596273020   -0.1400
     24 C24       -13.3410   -0.6609   59.2124 C.2     1  ZINC001596273020    0.5000
     25 O25       -13.5034    0.3775   59.8303 O.co2   1  ZINC001596273020   -0.6900
     26 O26       -14.2302   -1.4943   59.1766 O.co2   1  ZINC001596273020   -0.6900
     27 C27       -12.3680   -0.6646   57.0169 C.3     1  ZINC001596273020    0.1600
     28 H28        -4.6743    4.0499   51.1495 H       1  ZINC001596273020    0.0800
     29 H29        -3.8923    3.2548   52.5367 H       1  ZINC001596273020    0.0800
     30 H30        -3.0453    3.3542   50.9743 H       1  ZINC001596273020    0.1000
     31 H31        -4.8604    1.9221   49.9695 H       1  ZINC001596273020    0.1300
     32 H32        -3.9266    1.0941   51.2387 H       1  ZINC001596273020    0.1300
     33 H33        -7.7947    2.4944   51.9540 H       1  ZINC001596273020    0.1300
     34 H34        -6.4735    3.6815   51.8394 H       1  ZINC001596273020    0.1300
     35 H35        -6.1131    3.1293   49.4895 H       1  ZINC001596273020    0.0800
     36 H36        -7.2998    1.8057   49.5805 H       1  ZINC001596273020    0.0800
     37 H37        -7.8385    3.4958   49.7288 H       1  ZINC001596273020    0.1000
     38 H38        -6.8299    0.4013   50.4239 H       1  ZINC001596273020    0.1400
     39 H39        -5.6445   -0.3958   51.4860 H       1  ZINC001596273020    0.1400
     40 H40        -7.4250   -1.0338   52.7421 H       1  ZINC001596273020    0.1000
     41 H41        -7.5039    0.6615   53.2786 H       1  ZINC001596273020    0.0700
     42 H42        -9.5326    0.8556   53.5674 H       1  ZINC001596273020    0.0700
     43 H43       -10.6373    1.0206   52.1815 H       1  ZINC001596273020    0.0700
     44 H44       -11.3265   -1.1982   52.2907 H       1  ZINC001596273020    0.0900
     45 H45        -9.8001   -1.7462   53.0240 H       1  ZINC001596273020    0.0700
     46 H46       -11.4195    0.0018   54.7076 H       1  ZINC001596273020    0.3900
     47 H47       -13.2560   -3.2405   57.2558 H       1  ZINC001596273020    0.0700
     48 H48       -11.5912   -3.8662   57.0287 H       1  ZINC001596273020    0.0600
     49 H49       -10.3364   -3.7643   59.4094 H       1  ZINC001596273020    0.0500
     50 H50        -9.8327   -2.9023   57.9464 H       1  ZINC001596273020    0.0400
     51 H51       -10.0764   -1.6976   60.7300 H       1  ZINC001596273020    0.0700
     52 H52        -8.5610   -2.1119   59.8861 H       1  ZINC001596273020    0.0500
     53 H53        -8.9793    0.2743   59.5470 H       1  ZINC001596273020    0.0600
     54 H54        -9.2968   -0.5601   58.0019 H       1  ZINC001596273020    0.0500
     55 H55       -11.3449    0.2810   60.0903 H       1  ZINC001596273020    0.0600
     56 H56       -11.1265    0.9891   58.4826 H       1  ZINC001596273020    0.0600
     57 H57       -11.8315    0.2112   56.6520 H       1  ZINC001596273020    0.0700
     58 H58       -13.4421   -0.5368   56.8820 H       1  ZINC001596273020    0.0700
@<TRIPOS>BOND
     1     1     2    1
     2     1    28    1
     3     1    29    1
     4     1    30    1
     5     2     3    1
     6     2    31    1
     7     2    32    1
     8     3     4    1
     9     3     5    1
    10     3     7    1
    11     5     6    1
    12     5    33    1
    13     5    34    1
    14     6    35    1
    15     6    36    1
    16     6    37    1
    17     7     8    1
    18     7    38    1
    19     7    39    1
    20     8     9    1
    21     8    40    1
    22     8    41    1
    23     9    10    1
    24    10    11    1
    25    10    42    1
    26    10    43    1
    27    11    12    1
    28    11    44    1
    29    11    45    1
    30    12    13   am
    31    12    46    1
    32    13    14    2
    33    13    15   am
    34    15    27    1
    35    15    16    1
    36    16    17    1
    37    16    47    1
    38    16    48    1
    39    17    18    1
    40    17    23    1
    41    17    19    1
    42    19    20    1
    43    19    49    1
    44    19    50    1
    45    20    21    1
    46    20    51    1
    47    20    52    1
    48    21    22    1
    49    21    53    1
    50    21    54    1
    51    22    23    1
    52    22    55    1
    53    22    56    1
    54    23    24    1
    55    23    27    1
    56    24    25   ar
    57    24    26   ar
    58    27    57    1
    59    27    58    1
@<TRIPOS>SUBSTRUCTURE
     1 ZINC001596273020        1 TEMP              0 ****  ****    0 ROOT


##########                                Name:    ZINC000046390957
##########                DOCK_Rotatable_Bonds:                   9
##########                         Heavy_Atoms:                  29
##########                    Molecular_Weight:             408.521
##########                DOCK_Rotatable_Bonds:                   9
##########                       Formal_Charge:           0.0100005
##########                     HBond_Acceptors:                   6
##########                        HBond_Donors:                   1
##########                         Heavy_Atoms:                  29
##########                          Grid_Score:          -36.645161
##########                     Grid_vdw_energy:          -36.059834
##########                      Grid_es_energy:           -0.585328
##########           Internal_energy_repulsive:           14.791730

@<TRIPOS>MOLECULE
ZINC000046390957
 53 55 1 0 0
SMALL
USER_CHARGES


@<TRIPOS>ATOM
      1 C1         -9.1169   -1.3300   58.9543 C.3     1  ZINC000046390957   -0.1100
      2 C2        -10.3324   -1.1051   59.8164 C.ar    1  ZINC000046390957   -0.0600
      3 C3        -10.2369   -0.3338   60.9582 C.ar    1  ZINC000046390957   -0.1200
      4 C4        -11.3516   -0.1274   61.7501 C.ar    1  ZINC000046390957   -0.1100
      5 C5        -12.5650   -0.6916   61.4016 C.ar    1  ZINC000046390957   -0.1200
      6 C6        -12.6672   -1.4635   60.2608 C.ar    1  ZINC000046390957   -0.0800
      7 C7        -13.9901   -2.0775   59.8815 C.3     1  ZINC000046390957   -0.1100
      8 C8        -11.5508   -1.6684   59.4607 C.ar    1  ZINC000046390957    0.1300
      9 N9        -11.6511   -2.4494   58.3040 N.am    1  ZINC000046390957   -0.6800
     10 C10       -12.1681   -1.9214   57.1770 C.2     1  ZINC000046390957    0.5200
     11 O11       -12.5466   -0.7690   57.1653 O.2     1  ZINC000046390957   -0.4900
     12 C12       -12.2761   -2.7626   55.9312 C.3     1  ZINC000046390957    0.0700
     13 H13       -11.3658   -3.3495   55.8091 H       1  ZINC000046390957    0.1100
     14 C14       -13.4767   -3.7030   56.0535 C.3     1  ZINC000046390957   -0.1700
     15 O15       -12.4534   -1.8987   54.7777 O.3     1  ZINC000046390957   -0.3300
     16 C16       -11.9710   -2.3405   53.6057 C.2     1  ZINC000046390957    0.4700
     17 O17       -11.5679   -3.4754   53.5075 O.2     1  ZINC000046390957   -0.4800
     18 C18       -11.9321   -1.4212   52.4122 C.3     1  ZINC000046390957   -0.0300
     19 C19       -10.7653   -0.4765   52.5435 C.2     1  ZINC000046390957    0.0800
     20 C20       -10.8402    0.6755   53.2169 C.2     1  ZINC000046390957   -0.2500
     21 S21        -9.2670    1.4630   53.1207 S.3     1  ZINC000046390957    0.1300
     22 C22        -8.6649    0.1649   52.1847 C.2     1  ZINC000046390957    0.0600
     23 C23        -7.2600    0.0670   51.6485 C.3     1  ZINC000046390957    0.0000
     24 C24        -6.7442    1.4482   51.3361 C.ar    1  ZINC000046390957   -0.0900
     25 C25        -7.5630    2.3650   50.7036 C.ar    1  ZINC000046390957   -0.0900
     26 C26        -7.0898    3.6318   50.4171 C.ar    1  ZINC000046390957   -0.1200
     27 C27        -5.7982    3.9820   50.7633 C.ar    1  ZINC000046390957   -0.1200
     28 C28        -4.9797    3.0654   51.3966 C.ar    1  ZINC000046390957   -0.1200
     29 C29        -5.4543    1.7999   51.6870 C.ar    1  ZINC000046390957   -0.1100
     30 N30        -9.5862   -0.7213   52.0088 N.2     1  ZINC000046390957   -0.4500
     31 H31        -8.9908   -0.4857   58.2767 H       1  ZINC000046390957    0.0800
     32 H32        -8.2345   -1.4227   59.5875 H       1  ZINC000046390957    0.0700
     33 H33        -9.2463   -2.2445   58.3754 H       1  ZINC000046390957    0.0600
     34 H34        -9.2906    0.1081   61.2330 H       1  ZINC000046390957    0.1300
     35 H35       -11.2742    0.4755   62.6427 H       1  ZINC000046390957    0.1300
     36 H36       -13.4337   -0.5288   62.0223 H       1  ZINC000046390957    0.1300
     37 H37       -14.5416   -1.3870   59.2435 H       1  ZINC000046390957    0.0700
     38 H38       -13.8171   -3.0098   59.3438 H       1  ZINC000046390957    0.0600
     39 H39       -14.5685   -2.2801   60.7830 H       1  ZINC000046390957    0.0700
     40 H40       -11.3484   -3.3709   58.3133 H       1  ZINC000046390957    0.4100
     41 H41       -13.3436   -4.3516   56.9195 H       1  ZINC000046390957    0.0800
     42 H42       -14.3871   -3.1162   56.1756 H       1  ZINC000046390957    0.0800
     43 H43       -13.5548   -4.3116   55.1525 H       1  ZINC000046390957    0.0800
     44 H44       -11.8213   -2.0113   51.5024 H       1  ZINC000046390957    0.1200
     45 H45       -12.8589   -0.8494   52.3637 H       1  ZINC000046390957    0.1300
     46 H46       -11.7112    1.0565   53.7293 H       1  ZINC000046390957    0.1800
     47 H47        -6.6179   -0.4004   52.3950 H       1  ZINC000046390957    0.1000
     48 H48        -7.2590   -0.5353   50.7401 H       1  ZINC000046390957    0.1000
     49 H49        -8.5721    2.0914   50.4332 H       1  ZINC000046390957    0.1200
     50 H50        -7.7292    4.3479   49.9223 H       1  ZINC000046390957    0.1200
     51 H51        -5.4284    4.9716   50.5388 H       1  ZINC000046390957    0.1200
     52 H52        -3.9705    3.3389   51.6668 H       1  ZINC000046390957    0.1200
     53 H53        -4.8149    1.0839   52.1818 H       1  ZINC000046390957    0.1200
@<TRIPOS>BOND
     1     1     2    1
     2     1    31    1
     3     1    32    1
     4     1    33    1
     5     2     8   ar
     6     2     3   ar
     7     3     4   ar
     8     3    34    1
     9     4     5   ar
    10     4    35    1
    11     5     6   ar
    12     5    36    1
    13     6     7    1
    14     6     8   ar
    15     7    37    1
    16     7    38    1
    17     7    39    1
    18     8     9    1
    19     9    10   am
    20     9    40    1
    21    10    11    2
    22    10    12    1
    23    12    13    1
    24    12    14    1
    25    12    15    1
    26    14    41    1
    27    14    42    1
    28    14    43    1
    29    15    16    1
    30    16    17    2
    31    16    18    1
    32    18    19    1
    33    18    44    1
    34    18    45    1
    35    19    30    1
    36    19    20    2
    37    20    21    1
    38    20    46    1
    39    21    22    1
    40    22    23    1
    41    22    30    2
    42    23    24    1
    43    23    47    1
    44    23    48    1
    45    24    29   ar
    46    24    25   ar
    47    25    26   ar
    48    25    49    1
    49    26    27   ar
    50    26    50    1
    51    27    28   ar
    52    27    51    1
    53    28    29   ar
    54    28    52    1
    55    29    53    1
@<TRIPOS>SUBSTRUCTURE
     1 ZINC000046390957        1 TEMP              0 ****  ****    0 ROOT


##########                                Name:    ZINC000442010511
##########                DOCK_Rotatable_Bonds:                  11
##########                         Heavy_Atoms:                  31
##########                    Molecular_Weight:             422.481
##########                DOCK_Rotatable_Bonds:                  11
##########                       Formal_Charge:          -0.0200005
##########                     HBond_Acceptors:                   7
##########                        HBond_Donors:                   2
##########                         Heavy_Atoms:                  31
##########                          Grid_Score:          -36.622253
##########                     Grid_vdw_energy:          -35.902348
##########                      Grid_es_energy:           -0.719906
##########           Internal_energy_repulsive:            7.662187

@<TRIPOS>MOLECULE
ZINC000442010511
 57 59 1 0 0
SMALL
USER_CHARGES


@<TRIPOS>ATOM
      1 C1         -9.6870    0.0520   61.0576 C.3     1  ZINC000442010511   -0.1500
      2 C2         -9.6298    0.1945   59.5353 C.3     1  ZINC000442010511   -0.0500
      3 C3         -9.9894   -1.1208   58.8938 C.2     1  ZINC000442010511    0.0000
      4 C4         -9.5126   -2.3267   59.2512 C.2     1  ZINC000442010511   -0.2100
      5 C5        -10.1113   -3.2754   58.3905 C.2     1  ZINC000442010511   -0.1900
      6 C6        -10.9181   -2.5924   57.5587 C.2     1  ZINC000442010511   -0.0300
      7 C7        -11.7661   -3.1898   56.4656 C.3     1  ZINC000442010511    0.2400
      8 H8        -11.3095   -4.1160   56.1167 H       1  ZINC000442010511    0.1400
      9 C9        -13.1656   -3.4843   57.0090 C.3     1  ZINC000442010511    0.0500
     10 O10       -13.3255   -4.8947   57.1741 O.3     1  ZINC000442010511   -0.3800
     11 C11       -14.2055   -5.4953   56.2217 C.3     1  ZINC000442010511    0.0300
     12 N12       -11.8641   -2.2438   55.3513 N.am    1  ZINC000442010511   -0.6900
     13 C13       -11.9493   -2.6995   54.0858 C.2     1  ZINC000442010511    0.5200
     14 O14       -11.9435   -3.8936   53.8692 O.2     1  ZINC000442010511   -0.5100
     15 C15       -12.0510   -1.7352   52.9501 C.2     1  ZINC000442010511    0.5100
     16 O16       -11.6170   -2.0367   51.8572 O.2     1  ZINC000442010511   -0.5000
     17 N17       -12.6246   -0.5303   53.1384 N.am    1  ZINC000442010511   -0.6300
     18 C18       -12.7198    0.3728   52.0747 C.ar    1  ZINC000442010511    0.1200
     19 C19       -13.6713    0.1819   51.0831 C.ar    1  ZINC000442010511   -0.1000
     20 C20       -13.7633    1.0758   50.0330 C.ar    1  ZINC000442010511   -0.1300
     21 C21       -12.9092    2.1612   49.9673 C.ar    1  ZINC000442010511   -0.0900
     22 C22       -11.9580    2.3583   50.9512 C.ar    1  ZINC000442010511   -0.1700
     23 C23       -11.8628    1.4707   52.0108 C.ar    1  ZINC000442010511    0.1000
     24 O24       -10.9282    1.6631   52.9789 O.3     1  ZINC000442010511   -0.2600
     25 C25        -9.6234    1.7196   52.6039 C.ar    1  ZINC000442010511    0.0800
     26 C26        -8.9394    2.9261   52.6475 C.ar    1  ZINC000442010511   -0.1300
     27 C27        -7.6129    2.9809   52.2661 C.ar    1  ZINC000442010511   -0.1100
     28 C28        -6.9668    1.8348   51.8406 C.ar    1  ZINC000442010511   -0.0800
     29 C29        -5.5197    1.8976   51.4246 C.3     1  ZINC000442010511   -0.1200
     30 C30        -7.6459    0.6312   51.7966 C.ar    1  ZINC000442010511   -0.1100
     31 C31        -8.9710    0.5699   52.1819 C.ar    1  ZINC000442010511   -0.1100
     32 O32       -10.8446   -1.2884   57.8719 O.3     1  ZINC000442010511   -0.1600
     33 H33       -10.6945   -0.2353   61.3580 H       1  ZINC000442010511    0.0600
     34 H34        -8.9802   -0.7135   61.3776 H       1  ZINC000442010511    0.0600
     35 H35        -9.4269    1.0034   61.5216 H       1  ZINC000442010511    0.0700
     36 H36       -10.3366    0.9601   59.2152 H       1  ZINC000442010511    0.0900
     37 H37        -8.6223    0.4819   59.2348 H       1  ZINC000442010511    0.0800
     38 H38        -8.8074   -2.5311   60.0431 H       1  ZINC000442010511    0.1500
     39 H39        -9.9511   -4.3434   58.3991 H       1  ZINC000442010511    0.1500
     40 H40       -13.2933   -2.9890   57.9715 H       1  ZINC000442010511    0.0700
     41 H41       -13.9132   -3.1135   56.3076 H       1  ZINC000442010511    0.0700
     42 H42       -14.2734   -6.5660   56.4144 H       1  ZINC000442010511    0.0900
     43 H43       -15.1952   -5.0470   56.3084 H       1  ZINC000442010511    0.0400
     44 H44       -13.8190   -5.3310   55.2159 H       1  ZINC000442010511    0.0400
     45 H45       -11.8674   -1.2893   55.5243 H       1  ZINC000442010511    0.4200
     46 H46       -12.9713   -0.2894   54.0116 H       1  ZINC000442010511    0.4300
     47 H47       -14.3396   -0.6651   51.1314 H       1  ZINC000442010511    0.1600
     48 H48       -14.5041    0.9260   49.2615 H       1  ZINC000442010511    0.1300
     49 H49       -12.9851    2.8569   49.1447 H       1  ZINC000442010511    0.1300
     50 H50       -11.2922    3.2068   50.8962 H       1  ZINC000442010511    0.1300
     51 H51        -9.4438    3.8218   52.9790 H       1  ZINC000442010511    0.1300
     52 H52        -7.0800    3.9197   52.2999 H       1  ZINC000442010511    0.1300
     53 H53        -4.8842    1.7152   52.2913 H       1  ZINC000442010511    0.0700
     54 H54        -5.3263    1.1388   50.6663 H       1  ZINC000442010511    0.0700
     55 H55        -5.3017    2.8840   51.0153 H       1  ZINC000442010511    0.0700
     56 H56        -7.1389   -0.2625   51.4639 H       1  ZINC000442010511    0.1300
     57 H57        -9.5010   -0.3705   52.1476 H       1  ZINC000442010511    0.1300
@<TRIPOS>BOND
     1     1     2    1
     2     1    33    1
     3     1    34    1
     4     1    35    1
     5     2     3    1
     6     2    36    1
     7     2    37    1
     8     3    32    1
     9     3     4    2
    10     4     5    1
    11     4    38    1
    12     5     6    2
    13     5    39    1
    14     6     7    1
    15     6    32    1
    16     7     8    1
    17     7     9    1
    18     7    12    1
    19     9    10    1
    20     9    40    1
    21     9    41    1
    22    10    11    1
    23    11    42    1
    24    11    43    1
    25    11    44    1
    26    12    13   am
    27    12    45    1
    28    13    14    2
    29    13    15    1
    30    15    16    2
    31    15    17   am
    32    17    18    1
    33    17    46    1
    34    18    23   ar
    35    18    19   ar
    36    19    20   ar
    37    19    47    1
    38    20    21   ar
    39    20    48    1
    40    21    22   ar
    41    21    49    1
    42    22    23   ar
    43    22    50    1
    44    23    24    1
    45    24    25    1
    46    25    31   ar
    47    25    26   ar
    48    26    27   ar
    49    26    51    1
    50    27    28   ar
    51    27    52    1
    52    28    29    1
    53    28    30   ar
    54    29    53    1
    55    29    54    1
    56    29    55    1
    57    30    31   ar
    58    30    56    1
    59    31    57    1
@<TRIPOS>SUBSTRUCTURE
     1 ZINC000442010511        1 TEMP              0 ****  ****    0 ROOT


##########                                Name:    ZINC000770814339
##########                DOCK_Rotatable_Bonds:                  13
##########                         Heavy_Atoms:                  28
##########                    Molecular_Weight:             409.423
##########                DOCK_Rotatable_Bonds:                  13
##########                       Formal_Charge:          -0.0100008
##########                     HBond_Acceptors:                  12
##########                        HBond_Donors:                   4
##########                         Heavy_Atoms:                  28
##########                          Grid_Score:          -36.590019
##########                     Grid_vdw_energy:          -35.933624
##########                      Grid_es_energy:           -0.656395
##########           Internal_energy_repulsive:            7.275245

@<TRIPOS>MOLECULE
ZINC000770814339
 47 48 1 0 0
SMALL
USER_CHARGES


@<TRIPOS>ATOM
      1 C1         -9.1682   -0.8007   59.8467 C.3     1  ZINC000770814339   -0.1500
      2 C2         -9.2841    0.6215   59.2943 C.3     1  ZINC000770814339    0.0600
      3 O3         -8.3543    0.7897   58.1918 O.3     1  ZINC000770814339   -0.3500
      4 C4         -8.3186    1.9956   57.6034 C.2     1  ZINC000770814339    0.4700
      5 O5         -9.0463    2.8787   57.9910 O.2     1  ZINC000770814339   -0.4800
      6 C6         -7.3708    2.2479   56.4592 C.3     1  ZINC000770814339    0.0700
      7 O7         -8.0388    1.9920   55.2221 O.3     1  ZINC000770814339   -0.1800
      8 N8         -7.2467    2.2471   54.0764 N.2     1  ZINC000770814339   -0.2800
      9 C9         -7.7423    2.0570   52.8863 C.2     1  ZINC000770814339    0.1800
     10 C10        -9.1355    1.5757   52.7319 C.2     1  ZINC000770814339    0.5900
     11 O11       -10.0627    2.3529   52.8445 O.2     1  ZINC000770814339   -0.5100
     12 N12        -9.3739    0.2760   52.4669 N.am    1  ZINC000770814339   -0.7000
     13 C13       -10.7509   -0.1995   52.3126 C.3     1  ZINC000770814339    0.1500
     14 C14       -11.1308   -1.0350   53.5079 C.ar    1  ZINC000770814339   -0.0600
     15 C15       -11.6212   -2.3150   53.3289 C.ar    1  ZINC000770814339   -0.1200
     16 C16       -11.9696   -3.0813   54.4254 C.ar    1  ZINC000770814339   -0.0200
     17 C17       -11.8272   -2.5679   55.7009 C.ar    1  ZINC000770814339   -0.6700
     18 S18       -12.2718   -3.5445   57.0984 S.o2    1  ZINC000770814339    2.7000
     19 N19       -13.6237   -4.4064   56.6840 N.am    1  ZINC000770814339   -1.2500
     20 O20       -11.2287   -4.4936   57.2729 O.2     1  ZINC000770814339   -0.9600
     21 O21       -12.6718   -2.6339   58.1134 O.2     1  ZINC000770814339   -0.9600
     22 C22       -11.3355   -1.2884   55.8800 C.ar    1  ZINC000770814339   -0.0200
     23 C23       -10.9834   -0.5235   54.7837 C.ar    1  ZINC000770814339   -0.1200
     24 C24        -6.9158    2.3210   51.6917 C.2     1  ZINC000770814339    0.0600
     25 C25        -5.5388    2.3495   51.6386 C.2     1  ZINC000770814339   -0.2000
     26 C26        -5.1716    2.6324   50.3239 C.2     1  ZINC000770814339    0.0400
     27 N27        -6.2572    2.7708   49.6054 N.2     1  ZINC000770814339   -0.2600
     28 N28        -7.3714    2.5767   50.4311 N.pl3   1  ZINC000770814339   -0.4400
     29 H29        -9.8661   -0.9270   60.6743 H       1  ZINC000770814339    0.0800
     30 H30        -9.4045   -1.5166   59.0595 H       1  ZINC000770814339    0.0700
     31 H31        -8.1512   -0.9716   60.1997 H       1  ZINC000770814339    0.0700
     32 H32       -10.3011    0.7923   58.9412 H       1  ZINC000770814339    0.0700
     33 H33        -9.0477    1.3373   60.0815 H       1  ZINC000770814339    0.0700
     34 H34        -7.0386    3.2857   56.4849 H       1  ZINC000770814339    0.1100
     35 H35        -6.5082    1.5879   56.5496 H       1  ZINC000770814339    0.1100
     36 H36        -8.6337   -0.3447   52.3783 H       1  ZINC000770814339    0.4100
     37 H37       -11.4239    0.6546   52.2377 H       1  ZINC000770814339    0.0900
     38 H38       -10.8277   -0.8031   51.4083 H       1  ZINC000770814339    0.0900
     39 H39       -11.7326   -2.7161   52.3323 H       1  ZINC000770814339    0.1400
     40 H40       -12.3535   -4.0810   54.2854 H       1  ZINC000770814339    0.1500
     41 H41       -14.0291   -5.0107   57.3253 H       1  ZINC000770814339    0.4200
     42 H42       -14.0103   -4.3067   55.8000 H       1  ZINC000770814339    0.4200
     43 H43       -11.2238   -0.8874   56.8765 H       1  ZINC000770814339    0.1500
     44 H44       -10.5992    0.4761   54.9236 H       1  ZINC000770814339    0.1400
     45 H45        -4.8655    2.1831   52.4665 H       1  ZINC000770814339    0.1700
     46 H46        -4.1593    2.7227   49.9586 H       1  ZINC000770814339    0.1900
     47 H47        -8.3008    2.6218   50.1573 H       1  ZINC000770814339    0.4500
@<TRIPOS>BOND
     1     1     2    1
     2     1    29    1
     3     1    30    1
     4     1    31    1
     5     2     3    1
     6     2    32    1
     7     2    33    1
     8     3     4    1
     9     4     5    2
    10     4     6    1
    11     6     7    1
    12     6    34    1
    13     6    35    1
    14     7     8    1
    15     8     9    2
    16     9    10    1
    17     9    24    1
    18    10    11    2
    19    10    12   am
    20    12    13    1
    21    12    36    1
    22    13    14    1
    23    13    37    1
    24    13    38    1
    25    14    23   ar
    26    14    15   ar
    27    15    16   ar
    28    15    39    1
    29    16    17   ar
    30    16    40    1
    31    17    18    1
    32    17    22   ar
    33    18    19   am
    34    18    20    2
    35    18    21    2
    36    19    41    1
    37    19    42    1
    38    22    23   ar
    39    22    43    1
    40    23    44    1
    41    24    28    1
    42    24    25    2
    43    25    26    1
    44    25    45    1
    45    26    27    2
    46    26    46    1
    47    27    28    1
    48    28    47    1
@<TRIPOS>SUBSTRUCTURE
     1 ZINC000770814339        1 TEMP              0 ****  ****    0 ROOT


##########                                Name:    ZINC001342153661
##########                DOCK_Rotatable_Bonds:                   8
##########                         Heavy_Atoms:                  29
##########                    Molecular_Weight:             395.548
##########                DOCK_Rotatable_Bonds:                   8
##########                       Formal_Charge:          -0.0400005
##########                     HBond_Acceptors:                   6
##########                        HBond_Donors:                   1
##########                         Heavy_Atoms:                  29
##########                          Grid_Score:          -36.435543
##########                     Grid_vdw_energy:          -36.548485
##########                      Grid_es_energy:            0.112942
##########           Internal_energy_repulsive:           19.043831

@<TRIPOS>MOLECULE
ZINC001342153661
 62 65 1 0 0
SMALL
USER_CHARGES


@<TRIPOS>ATOM
      1 C1         -9.2946    0.5331   57.6609 C.2     1  ZINC001342153661   -0.1400
      2 C2         -9.2091    1.3402   56.6325 C.2     1  ZINC001342153661   -0.1600
      3 C3         -7.9377    2.1095   56.3821 C.3     1  ZINC001342153661   -0.1200
      4 C4        -10.3822    1.4994   55.7001 C.3     1  ZINC001342153661    0.1500
      5 N5        -10.2720    0.5309   54.6066 N.pl3   1  ZINC001342153661   -0.4700
      6 C6        -10.8595   -0.7017   54.5331 C.2     1  ZINC001342153661    0.1800
      7 C7        -11.7527   -1.3287   55.5723 C.3     1  ZINC001342153661   -0.0600
      8 C8        -11.8787   -2.8288   55.2986 C.3     1  ZINC001342153661    0.1600
      9 H9        -12.1182   -2.9873   54.2471 H       1  ZINC001342153661    0.1000
     10 O10       -10.6422   -3.4750   55.6082 O.3     1  ZINC001342153661   -0.5400
     11 C11       -12.9755   -3.4056   56.1562 C.ar    1  ZINC001342153661   -0.1700
     12 C12       -13.2352   -2.8786   57.4118 C.ar    1  ZINC001342153661   -0.0600
     13 C13       -14.2543   -3.4409   58.1656 C.ar    1  ZINC001342153661   -0.1700
     14 C14       -14.9718   -4.5003   57.6440 C.ar    1  ZINC001342153661    0.1000
     15 N15       -14.6969   -4.9761   56.4451 N.ar    1  ZINC001342153661   -0.4800
     16 C16       -13.7389   -4.4630   55.6985 C.ar    1  ZINC001342153661    0.1100
     17 N17       -10.5044   -1.2332   53.3977 N.2     1  ZINC001342153661   -0.2700
     18 N18        -9.7385   -0.4266   52.7538 N.2     1  ZINC001342153661   -0.3200
     19 C19        -9.5665    0.6740   53.4474 C.2     1  ZINC001342153661    0.3600
     20 N20        -8.8053    1.7710   53.0765 N.3     1  ZINC001342153661   -0.4500
     21 C21        -9.6585    2.8663   52.5985 C.3     1  ZINC001342153661    0.0500
     22 C22        -8.8004    4.1062   52.3366 C.3     1  ZINC001342153661   -0.1200
     23 C23        -7.7340    3.7711   51.2902 C.3     1  ZINC001342153661   -0.1200
     24 C24        -6.8899    2.5959   51.7914 C.3     1  ZINC001342153661   -0.0800
     25 H25        -6.3761    2.8821   52.7090 H       1  ZINC001342153661    0.0800
     26 C26        -5.8595    2.2162   50.7260 C.3     1  ZINC001342153661   -0.0800
     27 C27        -5.1767    3.4843   50.1561 C.3     1  ZINC001342153661   -0.1200
     28 C28        -3.8341    2.9349   49.6130 C.3     1  ZINC001342153661   -0.1300
     29 C29        -3.4143    1.8711   50.6485 C.3     1  ZINC001342153661   -0.1300
     30 C30        -4.7021    1.4142   51.3562 C.3     1  ZINC001342153661   -0.1200
     31 C31        -7.8034    1.3998   52.0690 C.3     1  ZINC001342153661    0.0800
     32 H32        -8.4538    0.4190   58.3291 H       1  ZINC001342153661    0.1000
     33 H33       -10.2073   -0.0148   57.8429 H       1  ZINC001342153661    0.1100
     34 H34        -7.2435    1.4894   55.8150 H       1  ZINC001342153661    0.0700
     35 H35        -8.1649    3.0123   55.8152 H       1  ZINC001342153661    0.0600
     36 H36        -7.4849    2.3834   57.3351 H       1  ZINC001342153661    0.0700
     37 H37       -11.3082    1.3248   56.2482 H       1  ZINC001342153661    0.1000
     38 H38       -10.3870    2.5098   55.2915 H       1  ZINC001342153661    0.1000
     39 H39       -11.3223   -1.1749   56.5620 H       1  ZINC001342153661    0.1100
     40 H40       -12.7393   -0.8674   55.5296 H       1  ZINC001342153661    0.1000
     41 H41       -10.3624   -3.3688   56.5276 H       1  ZINC001342153661    0.3800
     42 H42       -12.6574   -2.0499   57.7940 H       1  ZINC001342153661    0.1300
     43 H43       -14.4839   -3.0559   59.1482 H       1  ZINC001342153661    0.1400
     44 H44       -15.7668   -4.9440   58.2250 H       1  ZINC001342153661    0.1600
     45 H45       -13.5427   -4.8795   54.7214 H       1  ZINC001342153661    0.1500
     46 H46       -10.1528    2.5651   51.6748 H       1  ZINC001342153661    0.0500
     47 H47       -10.4098    3.0975   53.3536 H       1  ZINC001342153661    0.0700
     48 H48        -9.4317    4.9142   51.9670 H       1  ZINC001342153661    0.0800
     49 H49        -8.3166    4.4162   53.2629 H       1  ZINC001342153661    0.0700
     50 H50        -8.2172    3.4985   50.3520 H       1  ZINC001342153661    0.0600
     51 H51        -7.0932    4.6386   51.1325 H       1  ZINC001342153661    0.0700
     52 H52        -6.3308    1.6428   49.9279 H       1  ZINC001342153661    0.0800
     53 H53        -5.7720    3.9145   49.3506 H       1  ZINC001342153661    0.0700
     54 H54        -5.0037    4.2173   50.9440 H       1  ZINC001342153661    0.0700
     55 H55        -3.9769    2.4784   48.6336 H       1  ZINC001342153661    0.0600
     56 H56        -3.0903    3.7298   49.5598 H       1  ZINC001342153661    0.0600
     57 H57        -2.9445    1.0258   50.1457 H       1  ZINC001342153661    0.0600
     58 H58        -2.7248    2.3061   51.3720 H       1  ZINC001342153661    0.0600
     59 H59        -4.6375    1.6274   52.4232 H       1  ZINC001342153661    0.0600
     60 H60        -4.8571    0.3472   51.1969 H       1  ZINC001342153661    0.0600
     61 H61        -7.2073    0.5660   52.4396 H       1  ZINC001342153661    0.0900
     62 H62        -8.3064    1.1055   51.1479 H       1  ZINC001342153661    0.0500
@<TRIPOS>BOND
     1     1     2    2
     2     1    32    1
     3     1    33    1
     4     2     3    1
     5     2     4    1
     6     3    34    1
     7     3    35    1
     8     3    36    1
     9     4     5    1
    10     4    37    1
    11     4    38    1
    12     5    19    1
    13     5     6    1
    14     6     7    1
    15     6    17    2
    16     7     8    1
    17     7    39    1
    18     7    40    1
    19     8     9    1
    20     8    10    1
    21     8    11    1
    22    10    41    1
    23    11    16   ar
    24    11    12   ar
    25    12    13   ar
    26    12    42    1
    27    13    14   ar
    28    13    43    1
    29    14    15   ar
    30    14    44    1
    31    15    16   ar
    32    16    45    1
    33    17    18    1
    34    18    19    2
    35    19    20    1
    36    20    31    1
    37    20    21    1
    38    21    22    1
    39    21    46    1
    40    21    47    1
    41    22    23    1
    42    22    48    1
    43    22    49    1
    44    23    24    1
    45    23    50    1
    46    23    51    1
    47    24    25    1
    48    24    26    1
    49    24    31    1
    50    26    30    1
    51    26    27    1
    52    26    52    1
    53    27    28    1
    54    27    53    1
    55    27    54    1
    56    28    29    1
    57    28    55    1
    58    28    56    1
    59    29    30    1
    60    29    57    1
    61    29    58    1
    62    30    59    1
    63    30    60    1
    64    31    61    1
    65    31    62    1
@<TRIPOS>SUBSTRUCTURE
     1 ZINC001342153661        1 TEMP              0 ****  ****    0 ROOT


##########                                Name:    ZINC001347442583
##########                DOCK_Rotatable_Bonds:                   9
##########                         Heavy_Atoms:                  27
##########                    Molecular_Weight:             370.492
##########                DOCK_Rotatable_Bonds:                   9
##########                       Formal_Charge:          -0.0400009
##########                     HBond_Acceptors:                   5
##########                        HBond_Donors:                   1
##########                         Heavy_Atoms:                  27
##########                          Grid_Score:          -36.233055
##########                     Grid_vdw_energy:          -35.734478
##########                      Grid_es_energy:           -0.498578
##########           Internal_energy_repulsive:           14.370512

@<TRIPOS>MOLECULE
ZINC001347442583
 57 60 1 0 0
SMALL
USER_CHARGES


@<TRIPOS>ATOM
      1 O1         -9.1431    1.3093   53.9095 O.2     1  ZINC001347442583   -0.5400
      2 C2         -9.3858    0.2569   53.3576 C.2     1  ZINC001347442583    0.5400
      3 C3         -8.3666   -0.3638   52.4373 C.3     1  ZINC001347442583   -0.1400
      4 C4         -7.9480    0.6569   51.3772 C.3     1  ZINC001347442583   -0.1000
      5 C5         -6.5848    1.2455   51.7461 C.3     1  ZINC001347442583   -0.1100
      6 C6         -6.1146    2.1813   50.6307 C.3     1  ZINC001347442583   -0.0800
      7 C7         -4.6489    2.4814   50.8113 C.ar    1  ZINC001347442583   -0.0800
      8 C8         -3.8880    2.8867   49.7306 C.ar    1  ZINC001347442583   -0.1200
      9 C9         -2.5435    3.1619   49.8964 C.ar    1  ZINC001347442583   -0.1200
     10 C10        -1.9599    3.0323   51.1428 C.ar    1  ZINC001347442583   -0.1300
     11 C11        -2.7210    2.6280   52.2236 C.ar    1  ZINC001347442583   -0.1200
     12 C12        -4.0665    2.3569   52.0587 C.ar    1  ZINC001347442583   -0.1200
     13 N13       -10.5647   -0.3602   53.5717 N.am    1  ZINC001347442583   -0.6300
     14 C14       -11.1106   -1.6509   53.0301 C.3     1  ZINC001347442583    0.1200
     15 H15       -10.4598   -2.1910   52.3426 H       1  ZINC001347442583    0.1200
     16 C16       -12.4697   -1.1741   52.4350 C.3     1  ZINC001347442583   -0.1300
     17 C17       -12.8968   -0.0284   53.3854 C.3     1  ZINC001347442583   -0.1300
     18 C18       -11.7349    0.0276   54.4303 C.3     1  ZINC001347442583    0.1200
     19 H19       -11.6350    0.9678   54.9727 H       1  ZINC001347442583    0.1200
     20 C20       -11.9238   -1.2418   55.3145 C.3     1  ZINC001347442583    0.1300
     21 H21       -12.9657   -1.3480   55.6164 H       1  ZINC001347442583    0.1100
     22 N22       -11.0506   -1.1869   56.4896 N.am    1  ZINC001347442583   -0.7200
     23 C23       -11.3101   -1.9652   57.5589 C.2     1  ZINC001347442583    0.5300
     24 O24       -12.2655   -2.7122   57.5477 O.2     1  ZINC001347442583   -0.5300
     25 C25       -10.4129   -1.9074   58.7684 C.3     1  ZINC001347442583   -0.1500
     26 H26        -9.5023   -2.4827   58.6016 H       1  ZINC001347442583    0.1100
     27 C27       -10.0776   -0.4367   59.1379 C.3     1  ZINC001347442583   -0.1400
     28 C28        -9.8343   -0.5646   60.6628 C.3     1  ZINC001347442583    0.0500
     29 O29       -10.7852   -1.5424   61.1135 O.3     1  ZINC001347442583   -0.3800
     30 C30       -11.1548   -2.4056   60.0272 C.3     1  ZINC001347442583    0.0700
     31 C31       -11.4665   -2.4013   54.3488 C.3     1  ZINC001347442583   -0.1400
     32 H32        -7.4930   -0.6673   53.0144 H       1  ZINC001347442583    0.0900
     33 H33        -8.8010   -1.2366   51.9498 H       1  ZINC001347442583    0.0900
     34 H34        -7.8811    0.1658   50.4064 H       1  ZINC001347442583    0.0700
     35 H35        -8.6879    1.4558   51.3299 H       1  ZINC001347442583    0.0700
     36 H36        -6.6706    1.8049   52.6777 H       1  ZINC001347442583    0.0600
     37 H37        -5.8627    0.4387   51.8718 H       1  ZINC001347442583    0.0600
     38 H38        -6.2711    1.7021   49.6643 H       1  ZINC001347442583    0.0700
     39 H39        -6.6833    3.1103   50.6720 H       1  ZINC001347442583    0.0700
     40 H40        -4.3439    2.9879   48.7569 H       1  ZINC001347442583    0.1200
     41 H41        -1.9489    3.4778   49.0519 H       1  ZINC001347442583    0.1200
     42 H42        -0.9094    3.2467   51.2721 H       1  ZINC001347442583    0.1200
     43 H43        -2.2650    2.5264   53.1974 H       1  ZINC001347442583    0.1200
     44 H44        -4.6611    2.0409   52.9032 H       1  ZINC001347442583    0.1200
     45 H45       -12.3345   -0.8006   51.4199 H       1  ZINC001347442583    0.0700
     46 H46       -13.2016   -1.9815   52.4539 H       1  ZINC001347442583    0.0800
     47 H47       -12.9735    0.9132   52.8416 H       1  ZINC001347442583    0.0800
     48 H48       -13.8404   -0.2678   53.8755 H       1  ZINC001347442583    0.0800
     49 H49       -10.2858   -0.5903   56.4980 H       1  ZINC001347442583    0.4000
     50 H50        -9.1782   -0.0977   58.6237 H       1  ZINC001347442583    0.0900
     51 H51       -10.9197    0.2229   58.9284 H       1  ZINC001347442583    0.0900
     52 H52        -8.8180   -0.9080   60.8562 H       1  ZINC001347442583    0.0700
     53 H53       -10.0118    0.3911   61.1558 H       1  ZINC001347442583    0.0900
     54 H54       -12.2312   -2.3537   59.8635 H       1  ZINC001347442583    0.0700
     55 H55       -10.8630   -3.4310   60.2540 H       1  ZINC001347442583    0.0800
     56 H56       -12.2881   -3.0933   54.1636 H       1  ZINC001347442583    0.0900
     57 H57       -10.6055   -2.9274   54.7612 H       1  ZINC001347442583    0.0800
@<TRIPOS>BOND
     1     1     2    2
     2     2     3    1
     3     2    13   am
     4     3     4    1
     5     3    32    1
     6     3    33    1
     7     4     5    1
     8     4    34    1
     9     4    35    1
    10     5     6    1
    11     5    36    1
    12     5    37    1
    13     6     7    1
    14     6    38    1
    15     6    39    1
    16     7    12   ar
    17     7     8   ar
    18     8     9   ar
    19     8    40    1
    20     9    10   ar
    21     9    41    1
    22    10    11   ar
    23    10    42    1
    24    11    12   ar
    25    11    43    1
    26    12    44    1
    27    13    18    1
    28    13    14    1
    29    14    15    1
    30    14    31    1
    31    14    16    1
    32    16    17    1
    33    16    45    1
    34    16    46    1
    35    17    18    1
    36    17    47    1
    37    17    48    1
    38    18    19    1
    39    18    20    1
    40    20    21    1
    41    20    22    1
    42    20    31    1
    43    22    23   am
    44    22    49    1
    45    23    24    2
    46    23    25    1
    47    25    26    1
    48    25    30    1
    49    25    27    1
    50    27    28    1
    51    27    50    1
    52    27    51    1
    53    28    29    1
    54    28    52    1
    55    28    53    1
    56    29    30    1
    57    30    54    1
    58    30    55    1
    59    31    56    1
    60    31    57    1
@<TRIPOS>SUBSTRUCTURE
     1 ZINC001347442583        1 TEMP              0 ****  ****    0 ROOT


##########                                Name:    ZINC000762020937
##########                DOCK_Rotatable_Bonds:                  10
##########                         Heavy_Atoms:                  28
##########                    Molecular_Weight:             391.467
##########                DOCK_Rotatable_Bonds:                  10
##########                       Formal_Charge:         -1.8999e-07
##########                     HBond_Acceptors:                   8
##########                        HBond_Donors:                   1
##########                         Heavy_Atoms:                  28
##########                          Grid_Score:          -35.963936
##########                     Grid_vdw_energy:          -36.603401
##########                      Grid_es_energy:            0.639464
##########           Internal_energy_repulsive:           23.854239

@<TRIPOS>MOLECULE
ZINC000762020937
 57 58 1 0 0
SMALL
USER_CHARGES


@<TRIPOS>ATOM
      1 C1         -9.9918   -1.7328   59.1962 C.3     1  ZINC000762020937    0.0200
      2 O2        -11.2386   -1.6100   58.5086 O.3     1  ZINC000762020937   -0.3000
      3 C3        -11.1922   -1.5587   57.1505 C.ar    1  ZINC000762020937    0.1100
      4 C4        -10.9532   -0.3545   56.5090 C.ar    1  ZINC000762020937   -0.1700
      5 C5        -10.9059   -0.3042   55.1279 C.ar    1  ZINC000762020937   -0.1000
      6 C6        -11.0970   -1.4535   54.3845 C.ar    1  ZINC000762020937   -0.1000
      7 C7        -11.0449   -1.3930   52.8796 C.3     1  ZINC000762020937    0.0200
      8 C8         -9.7950   -0.6697   52.4490 C.2     1  ZINC000762020937    0.1900
      9 N9         -9.5791    0.6222   52.5126 N.2     1  ZINC000762020937   -0.4700
     10 C10        -8.3402    0.8067   52.0228 C.2     1  ZINC000762020937    0.1600
     11 C11        -7.6236    2.1250   51.8831 C.3     1  ZINC000762020937    0.2600
     12 H12        -7.4043    2.5260   52.8727 H       1  ZINC000762020937    0.1200
     13 N13        -6.3716    1.9249   51.1490 N.am    1  ZINC000762020937   -0.7100
     14 C14        -5.1901    2.1451   51.7590 C.2     1  ZINC000762020937    0.6600
     15 O15        -5.1632    2.5082   52.9183 O.2     1  ZINC000762020937   -0.5600
     16 O16        -4.0397    1.9627   51.0839 O.3     1  ZINC000762020937   -0.3600
     17 C17        -3.1213    3.0862   51.0307 C.3     1  ZINC000762020937    0.1400
     18 C18        -3.9138    4.3858   50.8754 C.3     1  ZINC000762020937   -0.1800
     19 C19        -2.3042    3.1386   52.3232 C.3     1  ZINC000762020937   -0.1400
     20 C20        -2.1784    2.9182   49.8376 C.3     1  ZINC000762020937   -0.1800
     21 C21        -8.5110    3.1096   51.1191 C.3     1  ZINC000762020937   -0.1000
     22 C22        -8.7673    4.3439   51.9860 C.3     1  ZINC000762020937   -0.1400
     23 C23        -7.8097    3.5310   49.8262 C.3     1  ZINC000762020937   -0.1400
     24 N24        -7.8744   -0.3606   51.6924 N.2     1  ZINC000762020937   -0.3700
     25 O25        -8.6925   -1.2229   51.9345 O.3     1  ZINC000762020937    0.0900
     26 C26       -11.3356   -2.6590   55.0186 C.ar    1  ZINC000762020937   -0.1500
     27 C27       -11.3791   -2.7174   56.4020 C.ar    1  ZINC000762020937    0.1000
     28 O28       -11.6135   -3.9020   57.0271 O.3     1  ZINC000762020937   -0.3100
     29 C29       -12.9567   -4.3898   57.0103 C.3     1  ZINC000762020937    0.0200
     30 H30        -9.4944   -2.6514   58.8852 H       1  ZINC000762020937    0.0600
     31 H31        -9.3591   -0.8780   58.9568 H       1  ZINC000762020937    0.0600
     32 H32       -10.1710   -1.7625   60.2709 H       1  ZINC000762020937    0.1000
     33 H33       -10.8042    0.5453   57.0875 H       1  ZINC000762020937    0.1400
     34 H34       -10.7195    0.6354   54.6290 H       1  ZINC000762020937    0.1300
     35 H35       -11.0366   -2.4052   52.4754 H       1  ZINC000762020937    0.1200
     36 H36       -11.9198   -0.8600   52.5069 H       1  ZINC000762020937    0.1200
     37 H37        -6.3930    1.6338   50.2240 H       1  ZINC000762020937    0.4100
     38 H38        -4.5856    4.5055   51.7253 H       1  ZINC000762020937    0.0600
     39 H39        -3.2245    5.2292   50.8355 H       1  ZINC000762020937    0.0700
     40 H40        -4.4959    4.3484   49.9546 H       1  ZINC000762020937    0.0900
     41 H41        -1.7396    2.2128   52.4338 H       1  ZINC000762020937    0.0700
     42 H42        -1.6149    3.9821   52.2833 H       1  ZINC000762020937    0.0800
     43 H43        -2.9760    3.2584   53.1731 H       1  ZINC000762020937    0.0700
     44 H44        -2.7605    2.8809   48.9168 H       1  ZINC000762020937    0.0900
     45 H45        -1.4890    3.7616   49.7977 H       1  ZINC000762020937    0.0700
     46 H46        -1.6138    1.9925   49.9483 H       1  ZINC000762020937    0.0600
     47 H47        -9.4605    2.6314   50.8781 H       1  ZINC000762020937    0.0800
     48 H48        -7.8179    4.8221   52.2270 H       1  ZINC000762020937    0.0600
     49 H49        -9.3995    5.0454   51.4416 H       1  ZINC000762020937    0.0600
     50 H50        -9.2669    4.0436   52.9070 H       1  ZINC000762020937    0.0500
     51 H51        -7.6271    2.6516   49.2086 H       1  ZINC000762020937    0.0500
     52 H52        -8.4419    4.2325   49.2819 H       1  ZINC000762020937    0.0600
     53 H53        -6.8603    4.0092   50.0672 H       1  ZINC000762020937    0.0700
     54 H54       -11.4846   -3.5557   54.4354 H       1  ZINC000762020937    0.1400
     55 H55       -13.2778   -4.5343   55.9787 H       1  ZINC000762020937    0.0600
     56 H56       -13.0050   -5.3398   57.5424 H       1  ZINC000762020937    0.1000
     57 H57       -13.6117   -3.6672   57.4969 H       1  ZINC000762020937    0.0600
@<TRIPOS>BOND
     1     1     2    1
     2     1    30    1
     3     1    31    1
     4     1    32    1
     5     2     3    1
     6     3    27   ar
     7     3     4   ar
     8     4     5   ar
     9     4    33    1
    10     5     6   ar
    11     5    34    1
    12     6     7    1
    13     6    26   ar
    14     7     8    1
    15     7    35    1
    16     7    36    1
    17     8    25    1
    18     8     9    2
    19     9    10    1
    20    10    11    1
    21    10    24    2
    22    11    12    1
    23    11    13    1
    24    11    21    1
    25    13    14   am
    26    13    37    1
    27    14    15    2
    28    14    16    1
    29    16    17    1
    30    17    18    1
    31    17    19    1
    32    17    20    1
    33    18    38    1
    34    18    39    1
    35    18    40    1
    36    19    41    1
    37    19    42    1
    38    19    43    1
    39    20    44    1
    40    20    45    1
    41    20    46    1
    42    21    22    1
    43    21    23    1
    44    21    47    1
    45    22    48    1
    46    22    49    1
    47    22    50    1
    48    23    51    1
    49    23    52    1
    50    23    53    1
    51    24    25    1
    52    26    27   ar
    53    26    54    1
    54    27    28    1
    55    28    29    1
    56    29    55    1
    57    29    56    1
    58    29    57    1
@<TRIPOS>SUBSTRUCTURE
     1 ZINC000762020937        1 TEMP              0 ****  ****    0 ROOT


##########                                Name:    ZINC000466160459
##########                DOCK_Rotatable_Bonds:                   9
##########                         Heavy_Atoms:                  30
##########                    Molecular_Weight:             420.512
##########                DOCK_Rotatable_Bonds:                   9
##########                       Formal_Charge:          -0.0300007
##########                     HBond_Acceptors:                  10
##########                        HBond_Donors:                   2
##########                         Heavy_Atoms:                  30
##########                          Grid_Score:          -35.880756
##########                     Grid_vdw_energy:          -36.162395
##########                      Grid_es_energy:            0.281640
##########           Internal_energy_repulsive:           98.152199

@<TRIPOS>MOLECULE
ZINC000466160459
 62 64 1 0 0
SMALL
USER_CHARGES


@<TRIPOS>ATOM
      1 C1        -15.1316   -0.7508   62.6804 C.3     1  ZINC000466160459    0.0300
      2 O2        -15.0010   -2.1531   62.4383 O.3     1  ZINC000466160459   -0.3900
      3 C3        -15.5278   -2.5772   61.1795 C.3     1  ZINC000466160459    0.0500
      4 C4        -14.6944   -1.9722   60.0480 C.3     1  ZINC000466160459    0.1200
      5 N5        -13.2876   -2.3393   60.2275 N.am    1  ZINC000466160459   -0.7300
      6 C6        -12.4560   -2.3606   59.1672 C.2     1  ZINC000466160459    0.5200
      7 O7        -12.8721   -2.0746   58.0644 O.2     1  ZINC000466160459   -0.5200
      8 C8        -11.0092   -2.7400   59.3516 C.3     1  ZINC000466160459   -0.1300
      9 H9        -10.9169   -3.8260   59.3663 H       1  ZINC000466160459    0.1100
     10 C10       -10.4950   -2.1656   60.6736 C.3     1  ZINC000466160459   -0.1000
     11 C11       -10.6552   -0.6437   60.6672 C.3     1  ZINC000466160459   -0.1500
     12 C12        -9.8222   -0.0513   59.5261 C.3     1  ZINC000466160459    0.1600
     13 H13        -8.7636   -0.2270   59.7172 H       1  ZINC000466160459    0.0700
     14 C14       -10.0830    1.4531   59.4283 C.3     1  ZINC000466160459   -0.1400
     15 N15       -10.2108   -0.7043   58.2686 N.am    1  ZINC000466160459   -0.6200
     16 C16       -10.5877    0.0287   57.2022 C.2     1  ZINC000466160459    0.7100
     17 O17       -10.6083    1.2421   57.2752 O.2     1  ZINC000466160459   -0.5500
     18 N18       -10.9417   -0.5835   56.0549 N.am    1  ZINC000466160459   -0.7300
     19 C19       -11.3513    0.2131   54.8957 C.3     1  ZINC000466160459    0.1600
     20 H20       -11.8658    1.1113   55.2373 H       1  ZINC000466160459    0.1300
     21 C21       -12.2969   -0.6125   54.0198 C.3     1  ZINC000466160459   -0.1400
     22 C22       -11.4816   -1.7129   53.3300 C.3     1  ZINC000466160459   -0.1400
     23 C23       -10.5257   -1.0606   52.3305 C.3     1  ZINC000466160459    0.1100
     24 N24        -9.7713    0.0100   52.9703 N.am    1  ZINC000466160459   -0.5200
     25 C25        -8.5888    0.4400   52.3529 C.2     1  ZINC000466160459    0.2800
     26 N26        -8.4489    1.5229   51.6251 N.2     1  ZINC000466160459   -0.2600
     27 N27        -7.1178    1.5907   51.1943 N.pl3   1  ZINC000466160459   -0.3800
     28 C28        -6.5366    2.6435   50.3576 C.3     1  ZINC000466160459    0.1000
     29 C29        -6.4642    0.5166   51.6852 C.2     1  ZINC000466160459    0.0700
     30 C30        -7.3453   -0.2095   52.4101 C.2     1  ZINC000466160459   -0.2900
     31 C31       -10.1361    0.6046   54.1048 C.2     1  ZINC000466160459    0.4900
     32 O32        -9.4502    1.5133   54.5230 O.2     1  ZINC000466160459   -0.4700
     33 C33       -10.1804   -2.1721   58.1952 C.3     1  ZINC000466160459    0.1200
     34 H34       -14.7082   -0.5095   63.6554 H       1  ZINC000466160459    0.0900
     35 H35       -14.5998   -0.1975   61.9064 H       1  ZINC000466160459    0.0400
     36 H36       -16.1862   -0.4760   62.6640 H       1  ZINC000466160459    0.0400
     37 H37       -15.4896   -3.6647   61.1174 H       1  ZINC000466160459    0.0600
     38 H38       -16.5615   -2.2440   61.0875 H       1  ZINC000466160459    0.0700
     39 H39       -15.0500   -2.3536   59.0908 H       1  ZINC000466160459    0.0800
     40 H40       -14.7917   -0.8867   60.0653 H       1  ZINC000466160459    0.0800
     41 H41       -12.9545   -2.5669   61.1097 H       1  ZINC000466160459    0.4000
     42 H42       -11.0673   -2.5876   61.4999 H       1  ZINC000466160459    0.0700
     43 H43        -9.4419   -2.4195   60.7946 H       1  ZINC000466160459    0.0700
     44 H44       -11.7050   -0.3890   60.5214 H       1  ZINC000466160459    0.1000
     45 H45       -10.3105   -0.2376   61.6181 H       1  ZINC000466160459    0.0700
     46 H46        -9.8980    1.9177   60.3968 H       1  ZINC000466160459    0.0400
     47 H47        -9.4177    1.8894   58.6831 H       1  ZINC000466160459    0.0800
     48 H48       -11.1188    1.6240   59.1351 H       1  ZINC000466160459    0.0600
     49 H49       -10.9251   -1.5517   55.9966 H       1  ZINC000466160459    0.3900
     50 H50       -13.0714   -1.0638   54.6400 H       1  ZINC000466160459    0.0900
     51 H51       -12.7558    0.0299   53.2683 H       1  ZINC000466160459    0.0900
     52 H52       -10.9099   -2.2662   54.0752 H       1  ZINC000466160459    0.0700
     53 H53       -12.1538   -2.3909   52.8041 H       1  ZINC000466160459    0.1000
     54 H54        -9.8334   -1.8120   51.9509 H       1  ZINC000466160459    0.0900
     55 H55       -11.0987   -0.6503   51.4990 H       1  ZINC000466160459    0.0800
     56 H56        -6.1473    3.4391   50.9930 H       1  ZINC000466160459    0.0700
     57 H57        -5.7262    2.2265   49.7597 H       1  ZINC000466160459    0.0900
     58 H58        -7.3039    3.0482   49.6977 H       1  ZINC000466160459    0.0900
     59 H59        -5.4217    0.2812   51.5302 H       1  ZINC000466160459    0.1800
     60 H60        -7.1320   -1.1297   52.9337 H       1  ZINC000466160459    0.1500
     61 H61        -9.1509   -2.5208   58.2776 H       1  ZINC000466160459    0.0900
     62 H62       -10.6043   -2.4993   57.2458 H       1  ZINC000466160459    0.0700
@<TRIPOS>BOND
     1     1     2    1
     2     1    34    1
     3     1    35    1
     4     1    36    1
     5     2     3    1
     6     3     4    1
     7     3    37    1
     8     3    38    1
     9     4     5    1
    10     4    39    1
    11     4    40    1
    12     5     6   am
    13     5    41    1
    14     6     7    2
    15     6     8    1
    16     8     9    1
    17     8    33    1
    18     8    10    1
    19    10    11    1
    20    10    42    1
    21    10    43    1
    22    11    12    1
    23    11    44    1
    24    11    45    1
    25    12    13    1
    26    12    14    1
    27    12    15    1
    28    14    46    1
    29    14    47    1
    30    14    48    1
    31    15    16   am
    32    15    33    1
    33    16    17    2
    34    16    18   am
    35    18    19    1
    36    18    49    1
    37    19    20    1
    38    19    31    1
    39    19    21    1
    40    21    22    1
    41    21    50    1
    42    21    51    1
    43    22    23    1
    44    22    52    1
    45    22    53    1
    46    23    24    1
    47    23    54    1
    48    23    55    1
    49    24    25    1
    50    24    31   am
    51    25    30    1
    52    25    26    2
    53    26    27    1
    54    27    28    1
    55    27    29    1
    56    28    56    1
    57    28    57    1
    58    28    58    1
    59    29    30    2
    60    29    59    1
    61    30    60    1
    62    31    32    2
    63    33    61    1
    64    33    62    1
@<TRIPOS>SUBSTRUCTURE
     1 ZINC000466160459        1 TEMP              0 ****  ****    0 ROOT


##########                                Name:    ZINC000538774026
##########                DOCK_Rotatable_Bonds:                  10
##########                         Heavy_Atoms:                  29
##########                    Molecular_Weight:             414.496
##########                DOCK_Rotatable_Bonds:                  10
##########                       Formal_Charge:            0.049999
##########                     HBond_Acceptors:                   9
##########                        HBond_Donors:                   2
##########                         Heavy_Atoms:                  29
##########                          Grid_Score:          -35.738567
##########                     Grid_vdw_energy:          -35.336769
##########                      Grid_es_energy:           -0.401798
##########           Internal_energy_repulsive:           30.528051

@<TRIPOS>MOLECULE
ZINC000538774026
 61 62 1 0 0
SMALL
USER_CHARGES


@<TRIPOS>ATOM
      1 C1         -3.6476    1.8631   51.4125 C.3     1  ZINC000538774026   -0.1500
      2 C2         -4.5763    3.0354   51.0893 C.3     1  ZINC000538774026   -0.1100
      3 C3         -3.8318    4.0515   50.2210 C.3     1  ZINC000538774026   -0.1400
      4 C4         -5.8031    2.5207   50.3337 C.3     1  ZINC000538774026    0.1400
      5 N5         -6.5632    1.6134   51.1971 N.pl3   1  ZINC000538774026   -0.3400
      6 N6         -6.2310    0.2852   51.4928 N.2     1  ZINC000538774026   -0.2500
      7 C7         -7.1442   -0.1994   52.2948 C.2     1  ZINC000538774026    0.0500
      8 C8         -8.0933    0.8035   52.5400 C.2     1  ZINC000538774026    0.0800
      9 N9         -9.2358    0.6829   53.3547 N.am    1  ZINC000538774026   -0.6600
     10 C10       -10.1469   -0.2771   53.0998 C.2     1  ZINC000538774026    0.7100
     11 O11        -9.9817   -1.0400   52.1674 O.2     1  ZINC000538774026   -0.5700
     12 N12       -11.2410   -0.3915   53.8784 N.am    1  ZINC000538774026   -0.7300
     13 C13       -12.2322   -1.4338   53.6002 C.3     1  ZINC000538774026    0.1600
     14 C14       -11.7782   -2.7511   54.2324 C.3     1  ZINC000538774026   -0.1300
     15 C15       -11.6398   -2.5696   55.7453 C.3     1  ZINC000538774026   -0.1000
     16 C16       -12.9905   -2.1595   56.3355 C.3     1  ZINC000538774026   -0.0800
     17 C17       -12.8541   -1.9808   57.8257 C.2     1  ZINC000538774026    0.4700
     18 O18       -13.4430   -2.7194   58.5791 O.2     1  ZINC000538774026   -0.5000
     19 O19       -12.0784   -1.0012   58.3160 O.3     1  ZINC000538774026   -0.3500
     20 C20       -11.0363   -1.3903   59.2493 C.3     1  ZINC000538774026    0.1200
     21 C21       -11.6225   -1.4802   60.6597 C.3     1  ZINC000538774026   -0.1800
     22 C22       -10.4715   -2.7532   58.8439 C.3     1  ZINC000538774026   -0.1400
     23 C23        -9.9170   -0.3474   59.2277 C.3     1  ZINC000538774026   -0.1800
     24 C24       -13.4444   -0.8423   55.7033 C.3     1  ZINC000538774026   -0.1100
     25 C25       -13.5830   -1.0237   54.1904 C.3     1  ZINC000538774026   -0.1300
     26 C26        -7.7120    1.9130   51.8574 C.2     1  ZINC000538774026   -0.0500
     27 C27        -8.4363    3.2343   51.8298 C.3     1  ZINC000538774026    0.3500
     28 F28        -7.6510    4.2097   52.4536 F       1  ZINC000538774026   -0.1900
     29 F29        -8.6758    3.6071   50.5028 F       1  ZINC000538774026   -0.1900
     30 H30        -2.7735    2.2298   51.9508 H       1  ZINC000538774026    0.0600
     31 H31        -4.1780    1.1393   52.0311 H       1  ZINC000538774026    0.0600
     32 H32        -3.3296    1.3854   50.4858 H       1  ZINC000538774026    0.0600
     33 H33        -4.8943    3.5132   52.0160 H       1  ZINC000538774026    0.0800
     34 H34        -3.5138    3.5738   49.2944 H       1  ZINC000538774026    0.0600
     35 H35        -4.4934    4.8866   49.9907 H       1  ZINC000538774026    0.0600
     36 H36        -2.9577    4.4182   50.7593 H       1  ZINC000538774026    0.0600
     37 H37        -6.4331    3.3628   50.0475 H       1  ZINC000538774026    0.1000
     38 H38        -5.4815    1.9869   49.4395 H       1  ZINC000538774026    0.1000
     39 H39        -7.1640   -1.2008   52.6986 H       1  ZINC000538774026    0.2100
     40 H40        -9.3671    1.2906   54.0992 H       1  ZINC000538774026    0.4100
     41 H41       -11.3723    0.2163   54.6229 H       1  ZINC000538774026    0.4000
     42 H42       -12.3309   -1.5631   52.5225 H       1  ZINC000538774026    0.1000
     43 H43       -12.5156   -3.5265   54.0255 H       1  ZINC000538774026    0.0800
     44 H44       -10.8160   -3.0432   53.8120 H       1  ZINC000538774026    0.0800
     45 H45       -11.3163   -3.5081   56.1957 H       1  ZINC000538774026    0.0700
     46 H46       -10.9023   -1.7941   55.9523 H       1  ZINC000538774026    0.0700
     47 H47       -13.7279   -2.9351   56.1286 H       1  ZINC000538774026    0.1100
     48 H48       -12.4200   -2.2230   60.6751 H       1  ZINC000538774026    0.0600
     49 H49       -10.8402   -1.7722   61.3603 H       1  ZINC000538774026    0.0700
     50 H50       -12.0249   -0.5092   60.9485 H       1  ZINC000538774026    0.0800
     51 H51       -10.0539   -2.6892   57.8391 H       1  ZINC000538774026    0.0700
     52 H52        -9.6893   -3.0453   59.5446 H       1  ZINC000538774026    0.0800
     53 H53       -11.2689   -3.4961   58.8593 H       1  ZINC000538774026    0.0700
     54 H54       -10.3194    0.6235   59.5164 H       1  ZINC000538774026    0.0800
     55 H55        -9.1347   -0.6395   59.9283 H       1  ZINC000538774026    0.0700
     56 H56        -9.4994   -0.2834   58.2228 H       1  ZINC000538774026    0.0600
     57 H57       -14.4067   -0.5501   56.1238 H       1  ZINC000538774026    0.0800
     58 H58       -12.7070   -0.0668   55.9103 H       1  ZINC000538774026    0.0600
     59 H59       -13.9064   -0.0853   53.7401 H       1  ZINC000538774026    0.0800
     60 H60       -14.3204   -1.7993   53.9836 H       1  ZINC000538774026    0.0900
     61 H61        -9.3852    3.1395   52.3575 H       1  ZINC000538774026    0.1300
@<TRIPOS>BOND
     1     1     2    1
     2     1    30    1
     3     1    31    1
     4     1    32    1
     5     2     3    1
     6     2     4    1
     7     2    33    1
     8     3    34    1
     9     3    35    1
    10     3    36    1
    11     4     5    1
    12     4    37    1
    13     4    38    1
    14     5    26    1
    15     5     6    1
    16     6     7    2
    17     7     8    1
    18     7    39    1
    19     8     9    1
    20     8    26    2
    21     9    10   am
    22     9    40    1
    23    10    11    2
    24    10    12   am
    25    12    13    1
    26    12    41    1
    27    13    25    1
    28    13    14    1
    29    13    42    1
    30    14    15    1
    31    14    43    1
    32    14    44    1
    33    15    16    1
    34    15    45    1
    35    15    46    1
    36    16    17    1
    37    16    24    1
    38    16    47    1
    39    17    18    2
    40    17    19    1
    41    19    20    1
    42    20    21    1
    43    20    22    1
    44    20    23    1
    45    21    48    1
    46    21    49    1
    47    21    50    1
    48    22    51    1
    49    22    52    1
    50    22    53    1
    51    23    54    1
    52    23    55    1
    53    23    56    1
    54    24    25    1
    55    24    57    1
    56    24    58    1
    57    25    59    1
    58    25    60    1
    59    26    27    1
    60    27    28    1
    61    27    29    1
    62    27    61    1
@<TRIPOS>SUBSTRUCTURE
     1 ZINC000538774026        1 TEMP              0 ****  ****    0 ROOT


##########                                Name:    ZINC001191196975
##########                DOCK_Rotatable_Bonds:                  14
##########                         Heavy_Atoms:                  24
##########                    Molecular_Weight:             339.438
##########                DOCK_Rotatable_Bonds:                  14
##########                       Formal_Charge:          0.00999969
##########                     HBond_Acceptors:                   8
##########                        HBond_Donors:                   4
##########                         Heavy_Atoms:                  24
##########                          Grid_Score:          -35.589954
##########                     Grid_vdw_energy:          -35.081169
##########                      Grid_es_energy:           -0.508786
##########           Internal_energy_repulsive:           11.435058

@<TRIPOS>MOLECULE
ZINC001191196975
 53 53 1 0 0
SMALL
USER_CHARGES


@<TRIPOS>ATOM
      1 C1         -1.0121    4.8704   51.2447 C.2     1  ZINC001191196975   -0.1600
      2 C2         -1.0433    3.9631   50.3003 C.2     1  ZINC001191196975   -0.1800
      3 C3         -1.8581    2.7091   50.4867 C.3     1  ZINC001191196975    0.1500
      4 N4         -3.2215    2.9358   50.0011 N.am    1  ZINC001191196975   -0.7300
      5 C5         -4.2414    2.2028   50.4898 C.2     1  ZINC001191196975    0.5100
      6 O6         -4.0303    1.3545   51.3303 O.2     1  ZINC001191196975   -0.5200
      7 C7         -5.6443    2.4373   49.9915 C.3     1  ZINC001191196975    0.0300
      8 N8         -6.4330    3.0960   51.0414 N.3     1  ZINC001191196975   -0.5100
      9 C9         -6.4967    4.5469   50.8199 C.3     1  ZINC001191196975    0.0200
     10 C10        -7.7804    2.5172   51.1290 C.3     1  ZINC001191196975    0.0700
     11 H11        -8.2930    2.5792   50.1691 H       1  ZINC001191196975    0.0600
     12 C12        -8.6086    3.2031   52.2474 C.3     1  ZINC001191196975   -0.1200
     13 C13        -9.6178    2.1076   52.6513 C.3     1  ZINC001191196975    0.1000
     14 N14        -9.0452    0.8156   52.2458 N.am    1  ZINC001191196975   -0.6200
     15 C15        -9.6311   -0.3877   52.4045 C.2     1  ZINC001191196975    0.5300
     16 O16        -9.0633   -1.3925   52.0317 O.2     1  ZINC001191196975   -0.5400
     17 C17       -10.9916   -0.4847   53.0451 C.3     1  ZINC001191196975   -0.1300
     18 C18       -11.3739   -1.9570   53.2101 C.3     1  ZINC001191196975   -0.1000
     19 C19       -12.6195   -2.0648   54.0920 C.3     1  ZINC001191196975   -0.1300
     20 C20       -12.6450   -3.4344   54.7733 C.3     1  ZINC001191196975    0.1400
     21 N21       -13.8951   -3.5840   55.5225 N.am    1  ZINC001191196975   -0.7500
     22 C22       -13.9284   -4.3482   56.6321 C.2     1  ZINC001191196975    0.7000
     23 N23       -15.0780   -4.4845   57.3222 N.am    1  ZINC001191196975   -0.8700
     24 O24       -12.9213   -4.9147   57.0106 O.2     1  ZINC001191196975   -0.5900
     25 C25        -7.7242    1.0541   51.6350 C.3     1  ZINC001191196975    0.1100
     26 H26        -1.5702    4.7197   52.1570 H       1  ZINC001191196975    0.1000
     27 H27        -0.4246    5.7670   51.1128 H       1  ZINC001191196975    0.1000
     28 H28        -0.4852    4.1138   49.3880 H       1  ZINC001191196975    0.1200
     29 H29        -1.4032    1.8934   49.9248 H       1  ZINC001191196975    0.0800
     30 H30        -1.8877    2.4491   51.5448 H       1  ZINC001191196975    0.0700
     31 H31        -3.3901    3.6135   49.3279 H       1  ZINC001191196975    0.4000
     32 H32        -5.6141    3.0733   49.1069 H       1  ZINC001191196975    0.0700
     33 H33        -6.1039    1.4824   49.7370 H       1  ZINC001191196975    0.1100
     34 H34        -6.8606    4.7449   49.8118 H       1  ZINC001191196975    0.0200
     35 H35        -7.1748    4.9957   51.5457 H       1  ZINC001191196975    0.0700
     36 H36        -5.5019    4.9765   50.9381 H       1  ZINC001191196975    0.0900
     37 H37        -7.9715    3.4703   53.0905 H       1  ZINC001191196975    0.0900
     38 H38        -9.1265    4.0808   51.8606 H       1  ZINC001191196975    0.0800
     39 H39        -9.7698    2.1234   53.7305 H       1  ZINC001191196975    0.0700
     40 H40       -10.5661    2.2700   52.1389 H       1  ZINC001191196975    0.0700
     41 H41       -10.9678   -0.0037   54.0230 H       1  ZINC001191196975    0.0900
     42 H42       -11.7271    0.0130   52.4132 H       1  ZINC001191196975    0.0900
     43 H43       -11.5827   -2.3899   52.2319 H       1  ZINC001191196975    0.0800
     44 H44       -10.5499   -2.4961   53.6776 H       1  ZINC001191196975    0.0800
     45 H45       -12.5965   -1.2821   54.8503 H       1  ZINC001191196975    0.0700
     46 H46       -13.5115   -1.9484   53.4766 H       1  ZINC001191196975    0.0700
     47 H47       -12.5783   -4.2173   54.0179 H       1  ZINC001191196975    0.0700
     48 H48       -11.7998   -3.5160   55.4569 H       1  ZINC001191196975    0.0700
     49 H49       -14.6988   -3.1330   55.2199 H       1  ZINC001191196975    0.4000
     50 H50       -15.1018   -5.0337   58.1215 H       1  ZINC001191196975    0.4000
     51 H51       -15.8817   -4.0335   57.0195 H       1  ZINC001191196975    0.4200
     52 H52        -7.5621    0.3696   50.8024 H       1  ZINC001191196975    0.0800
     53 H53        -6.9361    0.9408   52.3794 H       1  ZINC001191196975    0.0800
@<TRIPOS>BOND
     1     1     2    2
     2     1    26    1
     3     1    27    1
     4     2     3    1
     5     2    28    1
     6     3     4    1
     7     3    29    1
     8     3    30    1
     9     4     5   am
    10     4    31    1
    11     5     6    2
    12     5     7    1
    13     7     8    1
    14     7    32    1
    15     7    33    1
    16     8     9    1
    17     8    10    1
    18     9    34    1
    19     9    35    1
    20     9    36    1
    21    10    11    1
    22    10    25    1
    23    10    12    1
    24    12    13    1
    25    12    37    1
    26    12    38    1
    27    13    14    1
    28    13    39    1
    29    13    40    1
    30    14    15   am
    31    14    25    1
    32    15    16    2
    33    15    17    1
    34    17    18    1
    35    17    41    1
    36    17    42    1
    37    18    19    1
    38    18    43    1
    39    18    44    1
    40    19    20    1
    41    19    45    1
    42    19    46    1
    43    20    21    1
    44    20    47    1
    45    20    48    1
    46    21    22   am
    47    21    49    1
    48    22    23   am
    49    22    24    2
    50    23    50    1
    51    23    51    1
    52    25    52    1
    53    25    53    1
@<TRIPOS>SUBSTRUCTURE
     1 ZINC001191196975        1 TEMP              0 ****  ****    0 ROOT


##########                                Name:    ZINC000465642058
##########                DOCK_Rotatable_Bonds:                  10
##########                         Heavy_Atoms:                  31
##########                    Molecular_Weight:             420.511
##########                DOCK_Rotatable_Bonds:                  10
##########                       Formal_Charge:          1.2666e-07
##########                     HBond_Acceptors:                   7
##########                        HBond_Donors:                   2
##########                         Heavy_Atoms:                  31
##########                          Grid_Score:          -35.584198
##########                     Grid_vdw_energy:          -35.594360
##########                      Grid_es_energy:            0.010162
##########           Internal_energy_repulsive:           12.428081

@<TRIPOS>MOLECULE
ZINC000465642058
 59 62 1 0 0
SMALL
USER_CHARGES


@<TRIPOS>ATOM
      1 C1        -14.1340    2.2064   51.6857 C.3     1  ZINC000465642058   -0.1500
      2 C2        -12.6655    2.1238   51.2639 C.3     1  ZINC000465642058    0.0500
      3 O3        -11.8515    1.8931   52.4155 O.3     1  ZINC000465642058   -0.3000
      4 C4        -10.5842    1.4511   52.1971 C.ar    1  ZINC000465642058    0.1200
      5 C5         -9.5633    2.3569   51.9453 C.ar    1  ZINC000465642058   -0.1600
      6 C6         -8.2811    1.9039   51.7261 C.ar    1  ZINC000465642058   -0.1300
      7 C7         -7.9902    0.5466   51.7594 C.ar    1  ZINC000465642058    0.0700
      8 C8         -9.0196   -0.3579   52.0080 C.ar    1  ZINC000465642058   -0.0700
      9 C9        -10.3038    0.0930   52.2306 C.ar    1  ZINC000465642058   -0.1100
     10 C10       -11.4097   -0.8948   52.4991 C.3     1  ZINC000465642058    0.1900
     11 N11       -11.7150   -0.9086   53.9318 N.am    1  ZINC000465642058   -0.7300
     12 C12       -11.6527   -2.0639   54.6231 C.2     1  ZINC000465642058    0.7100
     13 O13       -11.3444   -3.0950   54.0572 O.2     1  ZINC000465642058   -0.5900
     14 N14       -11.9320   -2.0763   55.9415 N.am    1  ZINC000465642058   -0.6200
     15 C15       -11.8660   -3.3325   56.6924 C.3     1  ZINC000465642058    0.1900
     16 C16       -13.2178   -3.9984   56.6772 C.2     1  ZINC000465642058    0.0500
     17 N17       -13.6903   -4.7534   55.7188 N.2     1  ZINC000465642058   -0.2700
     18 N18       -14.9739   -5.1765   56.0875 N.pl3   1  ZINC000465642058   -0.4700
     19 C19       -15.2532   -4.6495   57.2980 C.2     1  ZINC000465642058    0.0600
     20 C20       -14.1815   -3.9211   57.6880 C.2     1  ZINC000465642058   -0.2600
     21 C21       -12.3017   -0.8336   56.6237 C.3     1  ZINC000465642058    0.1700
     22 C22       -11.0829   -0.2400   57.2818 C.ar    1  ZINC000465642058   -0.1100
     23 C23       -10.2693    0.6265   56.5760 C.ar    1  ZINC000465642058   -0.0900
     24 C24        -9.1512    1.1709   57.1797 C.ar    1  ZINC000465642058   -0.1200
     25 C25        -8.8469    0.8491   58.4892 C.ar    1  ZINC000465642058   -0.1200
     26 C26        -9.6610   -0.0167   59.1952 C.ar    1  ZINC000465642058   -0.1300
     27 C27       -10.7814   -0.5578   58.5929 C.ar    1  ZINC000465642058   -0.1100
     28 O28        -6.6646    0.3212   51.5402 O.3     1  ZINC000465642058   -0.3000
     29 C29        -6.0855    1.4777   50.9124 C.3     1  ZINC000465642058    0.0800
     30 H30        -6.1399    1.3957   49.8269 H       1  ZINC000465642058    0.0900
     31 C31        -4.6379    1.6736   51.3673 C.3     1  ZINC000465642058   -0.1500
     32 C32        -6.9847    2.6292   51.4208 C.3     1  ZINC000465642058   -0.1100
     33 H33       -14.2635    3.0261   52.3924 H       1  ZINC000465642058    0.0700
     34 H34       -14.7549    2.3823   50.8073 H       1  ZINC000465642058    0.0800
     35 H35       -14.4296    1.2695   52.1579 H       1  ZINC000465642058    0.0700
     36 H36       -12.5360    1.3040   50.5573 H       1  ZINC000465642058    0.0600
     37 H37       -12.3699    3.0607   50.7917 H       1  ZINC000465642058    0.0600
     38 H38        -9.7740    3.4159   51.9209 H       1  ZINC000465642058    0.1300
     39 H39        -8.8105   -1.4172   52.0306 H       1  ZINC000465642058    0.1400
     40 H40       -12.2996   -0.6046   51.9407 H       1  ZINC000465642058    0.0700
     41 H41       -11.0924   -1.8894   52.1856 H       1  ZINC000465642058    0.0800
     42 H42       -11.9621   -0.0862   54.3830 H       1  ZINC000465642058    0.4000
     43 H43       -11.1306   -3.9925   56.2324 H       1  ZINC000465642058    0.1000
     44 H44       -11.5745   -3.1253   57.7221 H       1  ZINC000465642058    0.0900
     45 H45       -15.5586   -5.7473   55.5649 H       1  ZINC000465642058    0.4400
     46 H46       -16.1667   -4.7879   57.8573 H       1  ZINC000465642058    0.1800
     47 H47       -14.0892   -3.3719   58.6133 H       1  ZINC000465642058    0.1500
     48 H48       -12.7036   -0.1265   55.8981 H       1  ZINC000465642058    0.0900
     49 H49       -13.0566   -1.0456   57.3809 H       1  ZINC000465642058    0.0900
     50 H50       -10.5070    0.8779   55.5530 H       1  ZINC000465642058    0.1300
     51 H51        -8.5152    1.8474   56.6281 H       1  ZINC000465642058    0.1200
     52 H52        -7.9730    1.2740   58.9606 H       1  ZINC000465642058    0.1200
     53 H53        -9.4232   -0.2684   60.2182 H       1  ZINC000465642058    0.1200
     54 H54       -11.4175   -1.2342   59.1445 H       1  ZINC000465642058    0.1200
     55 H55        -4.0448    0.8071   51.0751 H       1  ZINC000465642058    0.0700
     56 H56        -4.2282    2.5689   50.8997 H       1  ZINC000465642058    0.0800
     57 H57        -4.6096    1.7845   52.4513 H       1  ZINC000465642058    0.0700
     58 H58        -7.1320    3.3802   50.6446 H       1  ZINC000465642058    0.0900
     59 H59        -6.5687    3.0794   52.3221 H       1  ZINC000465642058    0.1000
@<TRIPOS>BOND
     1     1     2    1
     2     1    33    1
     3     1    34    1
     4     1    35    1
     5     2     3    1
     6     2    36    1
     7     2    37    1
     8     3     4    1
     9     4     9   ar
    10     4     5   ar
    11     5     6   ar
    12     5    38    1
    13     6    32    1
    14     6     7   ar
    15     7     8   ar
    16     7    28    1
    17     8     9   ar
    18     8    39    1
    19     9    10    1
    20    10    11    1
    21    10    40    1
    22    10    41    1
    23    11    12   am
    24    11    42    1
    25    12    13    2
    26    12    14   am
    27    14    15    1
    28    14    21    1
    29    15    16    1
    30    15    43    1
    31    15    44    1
    32    16    20    1
    33    16    17    2
    34    17    18    1
    35    18    19    1
    36    18    45    1
    37    19    20    2
    38    19    46    1
    39    20    47    1
    40    21    22    1
    41    21    48    1
    42    21    49    1
    43    22    27   ar
    44    22    23   ar
    45    23    24   ar
    46    23    50    1
    47    24    25   ar
    48    24    51    1
    49    25    26   ar
    50    25    52    1
    51    26    27   ar
    52    26    53    1
    53    27    54    1
    54    28    29    1
    55    29    30    1
    56    29    31    1
    57    29    32    1
    58    31    55    1
    59    31    56    1
    60    31    57    1
    61    32    58    1
    62    32    59    1
@<TRIPOS>SUBSTRUCTURE
     1 ZINC000465642058        1 TEMP              0 ****  ****    0 ROOT


##########                                Name:    ZINC000509132103
##########                DOCK_Rotatable_Bonds:                   7
##########                         Heavy_Atoms:                  29
##########                    Molecular_Weight:              405.52
##########                DOCK_Rotatable_Bonds:                   7
##########                       Formal_Charge:          -0.0499998
##########                     HBond_Acceptors:                   6
##########                        HBond_Donors:                   0
##########                         Heavy_Atoms:                  29
##########                          Grid_Score:          -35.552467
##########                     Grid_vdw_energy:          -36.193409
##########                      Grid_es_energy:            0.640941
##########           Internal_energy_repulsive:           12.591864

@<TRIPOS>MOLECULE
ZINC000509132103
 52 55 1 0 0
SMALL
USER_CHARGES


@<TRIPOS>ATOM
      1 C1         -2.2151    2.4492   50.2915 C.3     1  ZINC000509132103    0.0300
      2 O2         -3.4937    2.8569   49.8004 O.3     1  ZINC000509132103   -0.3000
      3 C3         -4.5815    2.2426   50.3301 C.ar    1  ZINC000509132103    0.2700
      4 C4         -5.8604    2.6094   49.9198 C.ar    1  ZINC000509132103   -0.1300
      5 C5         -6.9393    1.9517   50.4911 C.ar    1  ZINC000509132103   -0.0700
      6 C6         -6.6783    0.9698   51.4356 C.ar    1  ZINC000509132103    0.0500
      7 C7         -7.8173    0.2264   52.0846 C.3     1  ZINC000509132103   -0.0500
      8 S8         -9.1799    1.3772   52.4156 S.3     1  ZINC000509132103   -0.1500
      9 C9         -9.4478    1.1902   54.1999 C.3     1  ZINC000509132103   -0.1300
     10 C10       -10.6904    0.3716   54.4382 C.2     1  ZINC000509132103    0.5400
     11 O11       -11.2879   -0.1111   53.4997 O.2     1  ZINC000509132103   -0.5100
     12 N12       -11.1379    0.1760   55.6944 N.am    1  ZINC000509132103   -0.6100
     13 C13       -10.4382    0.7461   56.8508 C.3     1  ZINC000509132103    0.1500
     14 C14       -10.3305   -0.2904   57.9409 C.ar    1  ZINC000509132103   -0.1000
     15 C15        -9.4923   -0.0181   59.0129 C.ar    1  ZINC000509132103   -0.1100
     16 C16        -9.3600   -0.9233   60.0462 C.ar    1  ZINC000509132103   -0.1200
     17 C17       -10.0690   -2.1093   60.0133 C.ar    1  ZINC000509132103   -0.1200
     18 C18       -10.8995   -2.3828   58.9463 C.ar    1  ZINC000509132103   -0.1100
     19 C19       -11.0300   -1.4762   57.9017 C.ar    1  ZINC000509132103   -0.0600
     20 C20       -11.9336   -1.8543   56.7577 C.3     1  ZINC000509132103   -0.0200
     21 H21       -11.4080   -2.5456   56.0992 H       1  ZINC000509132103    0.1000
     22 C22       -13.1665   -2.5287   57.3020 C.ar    1  ZINC000509132103   -0.0800
     23 C23       -13.5192   -3.7885   56.8555 C.ar    1  ZINC000509132103   -0.1100
     24 C24       -14.6501   -4.4072   57.3548 C.ar    1  ZINC000509132103   -0.1200
     25 C25       -15.4281   -3.7662   58.3007 C.ar    1  ZINC000509132103   -0.1200
     26 C26       -15.0748   -2.5068   58.7477 C.ar    1  ZINC000509132103   -0.1200
     27 C27       -13.9415   -1.8899   58.2518 C.ar    1  ZINC000509132103   -0.1100
     28 C28       -12.3519   -0.6133   55.9605 C.3     1  ZINC000509132103    0.1200
     29 N29        -5.4334    0.6868   51.7648 N.ar    1  ZINC000509132103   -0.1900
     30 N30        -4.4311    1.2885   51.2351 N.ar    1  ZINC000509132103   -0.3000
     31 H31        -2.0739    1.3857   50.0983 H       1  ZINC000509132103    0.0600
     32 H32        -1.4338    3.0170   49.7861 H       1  ZINC000509132103    0.1000
     33 H33        -2.1623    2.6338   51.3644 H       1  ZINC000509132103    0.0600
     34 H34        -6.0076    3.3822   49.1798 H       1  ZINC000509132103    0.1600
     35 H35        -7.9527    2.1969   50.2095 H       1  ZINC000509132103    0.1600
     36 H36        -8.1627   -0.5635   51.4176 H       1  ZINC000509132103    0.1100
     37 H37        -7.4769   -0.2129   53.0223 H       1  ZINC000509132103    0.1000
     38 H38        -8.5899    0.6864   54.6452 H       1  ZINC000509132103    0.1100
     39 H39        -9.5677    2.1737   54.6543 H       1  ZINC000509132103    0.1100
     40 H40        -9.4389    1.0619   56.5506 H       1  ZINC000509132103    0.1000
     41 H41       -10.9935    1.6072   57.2225 H       1  ZINC000509132103    0.0900
     42 H42        -8.9391    0.9091   59.0385 H       1  ZINC000509132103    0.1200
     43 H43        -8.7054   -0.7057   60.8772 H       1  ZINC000509132103    0.1300
     44 H44        -9.9728   -2.8202   60.8206 H       1  ZINC000509132103    0.1200
     45 H45       -11.4527   -3.3100   58.9225 H       1  ZINC000509132103    0.1200
     46 H46       -12.9114   -4.2894   56.1164 H       1  ZINC000509132103    0.1200
     47 H47       -14.9261   -5.3912   57.0055 H       1  ZINC000509132103    0.1200
     48 H48       -16.3120   -4.2492   58.6902 H       1  ZINC000509132103    0.1200
     49 H49       -15.6828   -2.0058   59.4866 H       1  ZINC000509132103    0.1200
     50 H50       -13.6656   -0.9058   58.6010 H       1  ZINC000509132103    0.1200
     51 H51       -13.0613   -0.0237   56.5413 H       1  ZINC000509132103    0.0800
     52 H52       -12.8080   -0.9167   55.0182 H       1  ZINC000509132103    0.1000
@<TRIPOS>BOND
     1     1     2    1
     2     1    31    1
     3     1    32    1
     4     1    33    1
     5     2     3    1
     6     3    30   ar
     7     3     4   ar
     8     4     5   ar
     9     4    34    1
    10     5     6   ar
    11     5    35    1
    12     6     7    1
    13     6    29   ar
    14     7     8    1
    15     7    36    1
    16     7    37    1
    17     8     9    1
    18     9    10    1
    19     9    38    1
    20     9    39    1
    21    10    11    2
    22    10    12   am
    23    12    28    1
    24    12    13    1
    25    13    14    1
    26    13    40    1
    27    13    41    1
    28    14    19   ar
    29    14    15   ar
    30    15    16   ar
    31    15    42    1
    32    16    17   ar
    33    16    43    1
    34    17    18   ar
    35    17    44    1
    36    18    19   ar
    37    18    45    1
    38    19    20    1
    39    20    21    1
    40    20    22    1
    41    20    28    1
    42    22    27   ar
    43    22    23   ar
    44    23    24   ar
    45    23    46    1
    46    24    25   ar
    47    24    47    1
    48    25    26   ar
    49    25    48    1
    50    26    27   ar
    51    26    49    1
    52    27    50    1
    53    28    51    1
    54    28    52    1
    55    29    30   ar
@<TRIPOS>SUBSTRUCTURE
     1 ZINC000509132103        1 TEMP              0 ****  ****    0 ROOT


##########                                Name:    ZINC000058043838
##########                DOCK_Rotatable_Bonds:                   8
##########                         Heavy_Atoms:                  29
##########                    Molecular_Weight:             412.469
##########                DOCK_Rotatable_Bonds:                   8
##########                       Formal_Charge:           0.0200001
##########                     HBond_Acceptors:                   9
##########                        HBond_Donors:                   0
##########                         Heavy_Atoms:                  29
##########                          Grid_Score:          -35.545002
##########                     Grid_vdw_energy:          -33.772835
##########                      Grid_es_energy:           -1.772168
##########           Internal_energy_repulsive:           14.168300

@<TRIPOS>MOLECULE
ZINC000058043838
 49 51 1 0 0
SMALL
USER_CHARGES


@<TRIPOS>ATOM
      1 C1         -6.6244    1.1101   52.1183 C.3     1  ZINC000058043838    0.0300
      2 O2         -7.8222    0.7278   51.4391 O.3     1  ZINC000058043838   -0.3800
      3 C3         -8.6352   -0.1937   52.1685 C.3     1  ZINC000058043838    0.0300
      4 C4         -9.3146    0.5342   53.3301 C.3     1  ZINC000058043838    0.1000
      5 N5        -10.7659    0.3588   53.2344 N.am    1  ZINC000058043838   -0.5200
      6 C6        -11.5237    1.3145   52.6610 C.2     1  ZINC000058043838    0.5100
      7 O7        -11.0044    2.3203   52.2256 O.2     1  ZINC000058043838   -0.4500
      8 C8        -13.0165    1.1334   52.5609 C.3     1  ZINC000058043838   -0.0900
      9 C9        -13.3969    0.8825   51.1245 C.ar    1  ZINC000058043838   -0.1400
     10 C10       -13.3613    1.9138   50.1986 C.ar    1  ZINC000058043838   -0.0500
     11 C11       -13.7194    1.6366   48.8879 C.ar    1  ZINC000058043838   -0.1700
     12 C12       -14.0969    0.3508   48.5505 C.ar    1  ZINC000058043838    0.1300
     13 C13       -14.4876    0.0381   47.1290 C.3     1  ZINC000058043838   -0.1100
     14 N14       -14.1191   -0.6059   49.4580 N.ar    1  ZINC000058043838   -0.4800
     15 C15       -13.7802   -0.3799   50.7121 C.ar    1  ZINC000058043838    0.1200
     16 C16       -11.3611   -0.7927   53.7348 C.2     1  ZINC000058043838    0.3100
     17 N17       -11.9098   -0.9051   54.9041 N.2     1  ZINC000058043838   -0.4700
     18 C18       -12.4312   -2.0840   55.2135 C.2     1  ZINC000058043838    0.1100
     19 C19       -13.0877   -2.3427   56.5181 C.ar    1  ZINC000058043838    0.0400
     20 C20       -12.6927   -1.6353   57.6524 C.ar    1  ZINC000058043838   -0.0800
     21 C21       -13.3074   -1.8799   58.8635 C.ar    1  ZINC000058043838   -0.0500
     22 C22       -14.3137   -2.8249   58.9532 C.ar    1  ZINC000058043838   -0.0400
     23 N23       -14.9693   -3.0826   60.2552 N.pl3   1  ZINC000058043838    0.0300
     24 O24       -14.6224   -2.4633   61.2449 O.2     1  ZINC000058043838   -0.1600
     25 O25       -15.8555   -3.9142   60.3367 O.2     1  ZINC000058043838   -0.1600
     26 C26       -14.7101   -3.5295   57.8307 C.ar    1  ZINC000058043838   -0.0500
     27 C27       -14.1057   -3.2899   56.6133 C.ar    1  ZINC000058043838   -0.1100
     28 C28       -12.3241   -3.0293   54.2625 C.2     1  ZINC000058043838   -0.2600
     29 S29       -11.4943   -2.3249   52.8767 S.3     1  ZINC000058043838    0.1500
     30 H30        -6.8798    1.5860   53.0651 H       1  ZINC000058043838    0.0500
     31 H31        -6.0165    0.2256   52.3086 H       1  ZINC000058043838    0.0400
     32 H32        -6.0635    1.8103   51.4993 H       1  ZINC000058043838    0.0900
     33 H33        -9.3945   -0.6107   51.5071 H       1  ZINC000058043838    0.0600
     34 H34        -8.0117   -0.9982   52.5588 H       1  ZINC000058043838    0.0800
     35 H35        -8.9602    0.1214   54.2746 H       1  ZINC000058043838    0.1200
     36 H36        -9.0732    1.5962   53.2843 H       1  ZINC000058043838    0.1000
     37 H37       -13.3210    0.2832   53.1712 H       1  ZINC000058043838    0.1100
     38 H38       -13.5164    2.0341   52.9172 H       1  ZINC000058043838    0.1100
     39 H39       -13.0622    2.9093   50.4913 H       1  ZINC000058043838    0.1300
     40 H40       -13.7035    2.4158   48.1402 H       1  ZINC000058043838    0.1400
     41 H41       -13.6041   -0.2672   46.5682 H       1  ZINC000058043838    0.0800
     42 H42       -15.2191   -0.7699   47.1226 H       1  ZINC000058043838    0.0800
     43 H43       -14.9219    0.9252   46.6680 H       1  ZINC000058043838    0.0800
     44 H44       -13.8108   -1.1886   51.4273 H       1  ZINC000058043838    0.1500
     45 H45       -11.9070   -0.8976   57.5836 H       1  ZINC000058043838    0.1600
     46 H46       -13.0020   -1.3327   59.7431 H       1  ZINC000058043838    0.1600
     47 H47       -15.4962   -4.2662   57.9064 H       1  ZINC000058043838    0.1600
     48 H48       -14.4162   -3.8404   55.7375 H       1  ZINC000058043838    0.1500
     49 H49       -12.6873   -4.0438   54.3346 H       1  ZINC000058043838    0.1800
@<TRIPOS>BOND
     1     1     2    1
     2     1    30    1
     3     1    31    1
     4     1    32    1
     5     2     3    1
     6     3     4    1
     7     3    33    1
     8     3    34    1
     9     4     5    1
    10     4    35    1
    11     4    36    1
    12     5     6   am
    13     5    16    1
    14     6     7    2
    15     6     8    1
    16     8     9    1
    17     8    37    1
    18     8    38    1
    19     9    15   ar
    20     9    10   ar
    21    10    11   ar
    22    10    39    1
    23    11    12   ar
    24    11    40    1
    25    12    13    1
    26    12    14   ar
    27    13    41    1
    28    13    42    1
    29    13    43    1
    30    14    15   ar
    31    15    44    1
    32    16    29    1
    33    16    17    2
    34    17    18    1
    35    18    19    1
    36    18    28    2
    37    19    27   ar
    38    19    20   ar
    39    20    21   ar
    40    20    45    1
    41    21    22   ar
    42    21    46    1
    43    22    23    1
    44    22    26   ar
    45    23    24    2
    46    23    25    2
    47    26    27   ar
    48    26    47    1
    49    27    48    1
    50    28    29    1
    51    28    49    1
@<TRIPOS>SUBSTRUCTURE
     1 ZINC000058043838        1 TEMP              0 ****  ****    0 ROOT


##########                                Name:    ZINC000486710336
##########                DOCK_Rotatable_Bonds:                   6
##########                         Heavy_Atoms:                  31
##########                    Molecular_Weight:             420.555
##########                DOCK_Rotatable_Bonds:                   6
##########                       Formal_Charge:         1.49012e-07
##########                     HBond_Acceptors:                   6
##########                        HBond_Donors:                   1
##########                         Heavy_Atoms:                  31
##########                          Grid_Score:          -35.510777
##########                     Grid_vdw_energy:          -34.873764
##########                      Grid_es_energy:           -0.637012
##########           Internal_energy_repulsive:           52.774628

@<TRIPOS>MOLECULE
ZINC000486710336
 63 67 1 0 0
SMALL
USER_CHARGES


@<TRIPOS>ATOM
      1 C1         -8.7130    3.8457   50.1465 C.3     1  ZINC000486710336    0.1000
      2 N2         -7.6903    3.0186   50.7917 N.pl3   1  ZINC000486710336   -0.3900
      3 N3         -6.3039    3.1653   50.6560 N.2     1  ZINC000486710336   -0.2800
      4 C4         -5.7180    2.2469   51.3809 C.2     1  ZINC000486710336    0.1000
      5 C5         -4.2303    2.0494   51.5185 C.3     1  ZINC000486710336   -0.0100
      6 C6         -3.4893    2.6420   50.2943 C.3     1  ZINC000486710336   -0.1200
      7 C7         -2.0684    2.9079   50.8507 C.3     1  ZINC000486710336   -0.1200
      8 C8         -2.3126    3.4016   52.2916 C.3     1  ZINC000486710336   -0.1200
      9 C9         -3.6872    2.8557   52.7163 C.3     1  ZINC000486710336   -0.1100
     10 C10        -6.7047    1.4803   52.0056 C.2     1  ZINC000486710336   -0.2600
     11 C11        -7.9174    1.9762   51.6327 C.2     1  ZINC000486710336    0.3000
     12 N12        -9.1614    1.4975   52.0339 N.am    1  ZINC000486710336   -0.6200
     13 C13        -9.4097    0.1729   52.0220 C.2     1  ZINC000486710336    0.5100
     14 O14        -8.5489   -0.6027   51.6599 O.2     1  ZINC000486710336   -0.4800
     15 C15       -10.7434   -0.3405   52.4540 C.2     1  ZINC000486710336    0.5300
     16 O16       -11.3460   -1.1282   51.7545 O.2     1  ZINC000486710336   -0.5100
     17 N17       -11.2783    0.0708   53.6207 N.am    1  ZINC000486710336   -0.5800
     18 C18       -10.6677    1.0223   54.5665 C.3     1  ZINC000486710336    0.1000
     19 C19       -11.6306    1.1524   55.7675 C.3     1  ZINC000486710336   -0.0600
     20 H20       -12.2855    2.0153   55.6463 H       1  ZINC000486710336    0.1000
     21 C21       -10.8625    1.2446   57.0608 C.ar    1  ZINC000486710336   -0.0700
     22 C22       -11.5023    1.0076   58.2631 C.ar    1  ZINC000486710336   -0.1100
     23 C23       -10.7977    1.0921   59.4494 C.ar    1  ZINC000486710336   -0.1200
     24 C24        -9.4533    1.4132   59.4334 C.ar    1  ZINC000486710336   -0.1200
     25 C25        -8.8133    1.6493   58.2311 C.ar    1  ZINC000486710336   -0.1200
     26 C26        -9.5168    1.5605   57.0445 C.ar    1  ZINC000486710336   -0.1100
     27 C27       -12.4461   -0.1751   55.6972 C.3     1  ZINC000486710336   -0.0800
     28 H28       -13.4154   -0.1014   56.1902 H       1  ZINC000486710336    0.1100
     29 C29       -11.5618   -1.2639   56.3085 C.3     1  ZINC000486710336   -0.1100
     30 C30       -12.0707   -2.6511   55.9240 C.3     1  ZINC000486710336   -0.1200
     31 C31       -11.9988   -2.7950   54.4000 C.3     1  ZINC000486710336   -0.1100
     32 C32       -12.9379   -1.7648   53.7725 C.3     1  ZINC000486710336   -0.1400
     33 C33       -12.5718   -0.3444   54.1696 C.3     1  ZINC000486710336    0.1400
     34 H34       -13.3357    0.3315   53.7849 H       1  ZINC000486710336    0.0800
     35 H35        -8.9518    4.6941   50.7878 H       1  ZINC000486710336    0.0800
     36 H36        -8.3369    4.2079   49.1897 H       1  ZINC000486710336    0.1000
     37 H37        -9.6111    3.2504   49.9821 H       1  ZINC000486710336    0.0800
     38 H38        -3.9960    0.9911   51.6334 H       1  ZINC000486710336    0.0900
     39 H39        -3.4556    1.9214   49.4772 H       1  ZINC000486710336    0.0700
     40 H40        -3.9580    3.5717   49.9718 H       1  ZINC000486710336    0.0800
     41 H41        -1.4828    1.9885   50.8565 H       1  ZINC000486710336    0.0700
     42 H42        -1.5667    3.6772   50.2637 H       1  ZINC000486710336    0.0700
     43 H43        -1.5372    3.0172   52.9544 H       1  ZINC000486710336    0.0600
     44 H44        -2.3195    4.4912   52.3169 H       1  ZINC000486710336    0.0600
     45 H45        -4.3611    3.6806   52.9476 H       1  ZINC000486710336    0.0700
     46 H46        -3.5790    2.2066   53.5852 H       1  ZINC000486710336    0.0700
     47 H47        -6.5358    0.6453   52.6694 H       1  ZINC000486710336    0.1700
     48 H48        -9.8496    2.1174   52.3222 H       1  ZINC000486710336    0.4200
     49 H49        -9.7031    0.6430   54.9038 H       1  ZINC000486710336    0.0900
     50 H50       -10.5403    1.9925   54.0864 H       1  ZINC000486710336    0.0800
     51 H51       -12.5527    0.7568   58.2755 H       1  ZINC000486710336    0.1200
     52 H52       -11.2978    0.9076   60.3887 H       1  ZINC000486710336    0.1200
     53 H53        -8.9030    1.4799   60.3603 H       1  ZINC000486710336    0.1200
     54 H54        -7.7630    1.9005   58.2187 H       1  ZINC000486710336    0.1200
     55 H55        -9.0168    1.7451   56.1052 H       1  ZINC000486710336    0.1200
     56 H56       -10.5409   -1.1428   55.9461 H       1  ZINC000486710336    0.0700
     57 H57       -11.5707   -1.1663   57.3940 H       1  ZINC000486710336    0.0700
     58 H58       -11.4473   -3.4124   56.3930 H       1  ZINC000486710336    0.0600
     59 H59       -13.1032   -2.7663   56.2539 H       1  ZINC000486710336    0.0600
     60 H60       -10.9783   -2.6151   54.0621 H       1  ZINC000486710336    0.0500
     61 H61       -12.3099   -3.7990   54.1111 H       1  ZINC000486710336    0.0600
     62 H62       -12.8908   -1.8531   52.6871 H       1  ZINC000486710336    0.1000
     63 H63       -13.9576   -1.9637   54.1021 H       1  ZINC000486710336    0.0700
@<TRIPOS>BOND
     1     1     2    1
     2     1    35    1
     3     1    36    1
     4     1    37    1
     5     2    11    1
     6     2     3    1
     7     3     4    2
     8     4     5    1
     9     4    10    1
    10     5     9    1
    11     5     6    1
    12     5    38    1
    13     6     7    1
    14     6    39    1
    15     6    40    1
    16     7     8    1
    17     7    41    1
    18     7    42    1
    19     8     9    1
    20     8    43    1
    21     8    44    1
    22     9    45    1
    23     9    46    1
    24    10    11    2
    25    10    47    1
    26    11    12    1
    27    12    13   am
    28    12    48    1
    29    13    14    2
    30    13    15    1
    31    15    16    2
    32    15    17   am
    33    17    33    1
    34    17    18    1
    35    18    19    1
    36    18    49    1
    37    18    50    1
    38    19    20    1
    39    19    21    1
    40    19    27    1
    41    21    26   ar
    42    21    22   ar
    43    22    23   ar
    44    22    51    1
    45    23    24   ar
    46    23    52    1
    47    24    25   ar
    48    24    53    1
    49    25    26   ar
    50    25    54    1
    51    26    55    1
    52    27    28    1
    53    27    33    1
    54    27    29    1
    55    29    30    1
    56    29    56    1
    57    29    57    1
    58    30    31    1
    59    30    58    1
    60    30    59    1
    61    31    32    1
    62    31    60    1
    63    31    61    1
    64    32    33    1
    65    32    62    1
    66    32    63    1
    67    33    34    1
@<TRIPOS>SUBSTRUCTURE
     1 ZINC000486710336        1 TEMP              0 ****  ****    0 ROOT


##########                                Name:    ZINC001060578637
##########                DOCK_Rotatable_Bonds:                  10
##########                         Heavy_Atoms:                  25
##########                    Molecular_Weight:             345.401
##########                DOCK_Rotatable_Bonds:                  10
##########                       Formal_Charge:          -0.0400001
##########                     HBond_Acceptors:                   8
##########                        HBond_Donors:                   3
##########                         Heavy_Atoms:                  25
##########                          Grid_Score:          -35.499020
##########                     Grid_vdw_energy:          -34.384521
##########                      Grid_es_energy:           -1.114497
##########           Internal_energy_repulsive:           13.378448

@<TRIPOS>MOLECULE
ZINC001060578637
 48 49 1 0 0
SMALL
USER_CHARGES


@<TRIPOS>ATOM
      1 C1         -2.9843    3.2625   50.4539 C.3     1  ZINC001060578637   -0.1500
      2 C2         -3.9958    2.3958   49.7014 C.3     1  ZINC001060578637   -0.1300
      3 C3         -5.4140    2.7791   50.1292 C.3     1  ZINC001060578637    0.0700
      4 H4         -6.0976    2.6333   49.2929 H       1  ZINC001060578637    0.0900
      5 O5         -5.4364    4.1507   50.5292 O.3     1  ZINC001060578637   -0.3600
      6 C6         -6.7221    4.6131   50.9481 C.3     1  ZINC001060578637    0.0300
      7 C7         -5.8418    1.9117   51.2848 C.2     1  ZINC001060578637    0.5000
      8 O8         -5.0417    1.6090   52.1446 O.2     1  ZINC001060578637   -0.5200
      9 N9         -7.1136    1.4724   51.3630 N.am    1  ZINC001060578637   -0.7300
     10 C10        -7.5300    0.6306   52.4874 C.3     1  ZINC001060578637    0.1600
     11 C11        -9.0267    0.4574   52.4580 C.ar    1  ZINC001060578637   -0.1100
     12 C12        -9.5751   -0.7519   52.0739 C.ar    1  ZINC001060578637   -0.0900
     13 C13       -10.9481   -0.9108   52.0469 C.ar    1  ZINC001060578637   -0.1100
     14 C14       -11.7725    0.1395   52.4045 C.ar    1  ZINC001060578637   -0.0900
     15 C15       -13.2693   -0.0334   52.3747 C.3     1  ZINC001060578637    0.1800
     16 H16       -13.7494    0.9157   52.6131 H       1  ZINC001060578637    0.1000
     17 C17       -13.6817   -1.0866   53.4049 C.3     1  ZINC001060578637   -0.1600
     18 N18       -13.6841   -0.4684   51.0387 N.am    1  ZINC001060578637   -0.7000
     19 C19       -13.6760    0.4054   50.0126 C.2     1  ZINC001060578637    0.6100
     20 O20       -13.3258    1.5553   50.1960 O.2     1  ZINC001060578637   -0.5300
     21 C21       -14.0919   -0.0330   48.6676 C.2     1  ZINC001060578637    0.1200
     22 N22       -14.4094   -1.2578   48.3064 N.2     1  ZINC001060578637   -0.2400
     23 N23       -14.7222   -1.2689   47.0592 N.2     1  ZINC001060578637   -0.2900
     24 C24       -14.6218   -0.0603   46.5620 C.2     1  ZINC001060578637    0.1900
     25 N25       -14.2271    0.7591   47.5566 N.pl3   1  ZINC001060578637   -0.5500
     26 C26       -11.2240    1.3485   52.7899 C.ar    1  ZINC001060578637   -0.1100
     27 C27        -9.8511    1.5062   52.8205 C.ar    1  ZINC001060578637   -0.0900
     28 H28        -1.9756    3.0111   50.1264 H       1  ZINC001060578637    0.0600
     29 H29        -3.1819    4.3143   50.2469 H       1  ZINC001060578637    0.0500
     30 H30        -3.0748    3.0797   51.5247 H       1  ZINC001060578637    0.0600
     31 H31        -3.8843    2.5555   48.6289 H       1  ZINC001060578637    0.0800
     32 H32        -3.8178    1.3456   49.9328 H       1  ZINC001060578637    0.0800
     33 H33        -6.6399    5.6387   51.3081 H       1  ZINC001060578637    0.0900
     34 H34        -7.4129    4.5780   50.1057 H       1  ZINC001060578637    0.0500
     35 H35        -7.0941    3.9753   51.7499 H       1  ZINC001060578637    0.0400
     36 H36        -7.7531    1.7135   50.6747 H       1  ZINC001060578637    0.4000
     37 H37        -7.0497   -0.3446   52.4086 H       1  ZINC001060578637    0.0800
     38 H38        -7.2376    1.1051   53.4242 H       1  ZINC001060578637    0.0800
     39 H39        -8.9310   -1.5726   51.7947 H       1  ZINC001060578637    0.1300
     40 H40       -11.3766   -1.8555   51.7462 H       1  ZINC001060578637    0.1300
     41 H41       -13.2015   -2.0356   53.1665 H       1  ZINC001060578637    0.0600
     42 H42       -13.3730   -0.7629   54.3990 H       1  ZINC001060578637    0.0700
     43 H43       -14.7642   -1.2116   53.3833 H       1  ZINC001060578637    0.0700
     44 H44       -13.9647   -1.3854   50.8926 H       1  ZINC001060578637    0.4100
     45 H45       -14.8229    0.2275   45.5407 H       1  ZINC001060578637    0.2300
     46 H46       -14.0660    1.7137   47.4972 H       1  ZINC001060578637    0.4400
     47 H47       -11.8682    2.1690   53.0696 H       1  ZINC001060578637    0.1300
     48 H48        -9.4226    2.4507   53.1216 H       1  ZINC001060578637    0.1300
@<TRIPOS>BOND
     1     1     2    1
     2     1    28    1
     3     1    29    1
     4     1    30    1
     5     2     3    1
     6     2    31    1
     7     2    32    1
     8     3     4    1
     9     3     5    1
    10     3     7    1
    11     5     6    1
    12     6    33    1
    13     6    34    1
    14     6    35    1
    15     7     8    2
    16     7     9   am
    17     9    10    1
    18     9    36    1
    19    10    11    1
    20    10    37    1
    21    10    38    1
    22    11    27   ar
    23    11    12   ar
    24    12    13   ar
    25    12    39    1
    26    13    14   ar
    27    13    40    1
    28    14    15    1
    29    14    26   ar
    30    15    16    1
    31    15    17    1
    32    15    18    1
    33    17    41    1
    34    17    42    1
    35    17    43    1
    36    18    19   am
    37    18    44    1
    38    19    20    2
    39    19    21    1
    40    21    25    1
    41    21    22    2
    42    22    23    1
    43    23    24    2
    44    24    25    1
    45    24    45    1
    46    25    46    1
    47    26    27   ar
    48    26    47    1
    49    27    48    1
@<TRIPOS>SUBSTRUCTURE
     1 ZINC001060578637        1 TEMP              0 ****  ****    0 ROOT


##########                                Name:    ZINC000848949366
##########                DOCK_Rotatable_Bonds:                   8
##########                         Heavy_Atoms:                  25
##########                    Molecular_Weight:             368.773
##########                DOCK_Rotatable_Bonds:                   8
##########                       Formal_Charge:          0.00999947
##########                     HBond_Acceptors:                   9
##########                        HBond_Donors:                   3
##########                         Heavy_Atoms:                  25
##########                          Grid_Score:          -35.348278
##########                     Grid_vdw_energy:          -32.321182
##########                      Grid_es_energy:           -3.027096
##########           Internal_energy_repulsive:           18.739428

@<TRIPOS>MOLECULE
ZINC000848949366
 42 43 1 0 0
SMALL
USER_CHARGES


@<TRIPOS>ATOM
      1 C1        -11.2903   -1.2804   53.4567 C.3     1  ZINC000848949366   -0.1500
      2 C2        -11.7058   -2.7154   53.7870 C.3     1  ZINC000848949366    0.0600
      3 O3        -12.1303   -2.7866   55.1496 O.3     1  ZINC000848949366   -0.3500
      4 C4        -13.4263   -2.5079   55.4028 C.2     1  ZINC000848949366    0.5400
      5 O5        -14.0908   -1.9053   54.5807 O.2     1  ZINC000848949366   -0.4800
      6 C6        -14.0121   -2.9162   56.6239 C.2     1  ZINC000848949366   -0.2300
      7 C7        -13.7233   -2.2849   57.7822 C.2     1  ZINC000848949366    0.2000
      8 C8        -12.7608   -1.1254   57.7746 C.3     1  ZINC000848949366    0.1000
      9 O9        -12.3287   -0.8460   59.1324 O.3     1  ZINC000848949366   -0.3500
     10 C10       -11.0657   -1.1877   59.4549 C.2     1  ZINC000848949366    0.5100
     11 O11       -10.4106   -1.8770   58.6983 O.2     1  ZINC000848949366   -0.4800
     12 C12       -10.4790   -0.7253   60.7249 C.ar    1  ZINC000848949366   -0.1600
     13 C13       -11.2097    0.1111   61.5733 C.ar    1  ZINC000848949366   -0.0300
     14 C14       -10.6558    0.5401   62.7592 C.ar    1  ZINC000848949366   -0.1300
     15 C15        -9.3750    0.1460   63.1160 C.ar    1  ZINC000848949366    0.0200
     16 Cl16       -8.6889    0.6945   64.6133 Cl      1  ZINC000848949366   -0.0500
     17 C17        -8.6416   -0.6815   62.2862 C.ar    1  ZINC000848949366   -0.1500
     18 C18        -9.1861   -1.1270   61.0920 C.ar    1  ZINC000848949366    0.1900
     19 O19        -8.4677   -1.9389   60.2767 O.3     1  ZINC000848949366   -0.4700
     20 N20       -14.2899   -2.6798   58.9603 N.am    1  ZINC000848949366   -0.6400
     21 C21       -15.1543   -3.6971   59.0643 C.2     1  ZINC000848949366    0.7100
     22 O22       -15.6065   -3.9749   60.1579 O.2     1  ZINC000848949366   -0.5600
     23 N23       -15.5395   -4.4229   57.9960 N.am    1  ZINC000848949366   -0.7100
     24 C24       -14.9895   -4.0728   56.6757 C.3     1  ZINC000848949366    0.2000
     25 H25       -15.8248   -3.8458   56.0132 H       1  ZINC000848949366    0.0900
     26 C26       -14.2745   -5.3062   56.1205 C.3     1  ZINC000848949366   -0.1700
     27 H27       -10.9664   -1.2260   52.4173 H       1  ZINC000848949366    0.0800
     28 H28       -12.1383   -0.6126   53.6085 H       1  ZINC000848949366    0.0700
     29 H29       -10.4701   -0.9804   54.1089 H       1  ZINC000848949366    0.0700
     30 H30       -12.5260   -3.0154   53.1348 H       1  ZINC000848949366    0.0700
     31 H31       -10.8578   -3.3833   53.6352 H       1  ZINC000848949366    0.0700
     32 H32       -11.8947   -1.3761   57.1620 H       1  ZINC000848949366    0.1100
     33 H33       -13.2550   -0.2457   57.3623 H       1  ZINC000848949366    0.1000
     34 H34       -12.2073    0.4211   61.2991 H       1  ZINC000848949366    0.1500
     35 H35       -11.2213    1.1865   63.4139 H       1  ZINC000848949366    0.1500
     36 H36        -7.6447   -0.9843   62.5707 H       1  ZINC000848949366    0.1500
     37 H37        -7.5764   -2.1311   60.5990 H       1  ZINC000848949366    0.4000
     38 H38       -14.0527   -2.1964   59.7671 H       1  ZINC000848949366    0.4300
     39 H39       -16.1668   -5.1563   58.0942 H       1  ZINC000848949366    0.4400
     40 H40       -14.9854   -6.1271   56.0269 H       1  ZINC000848949366    0.0700
     41 H41       -13.8568   -5.0738   55.1408 H       1  ZINC000848949366    0.0700
     42 H42       -13.4715   -5.5964   56.7981 H       1  ZINC000848949366    0.0700
@<TRIPOS>BOND
     1     1     2    1
     2     1    27    1
     3     1    28    1
     4     1    29    1
     5     2     3    1
     6     2    30    1
     7     2    31    1
     8     3     4    1
     9     4     5    2
    10     4     6    1
    11     6    24    1
    12     6     7    2
    13     7     8    1
    14     7    20    1
    15     8     9    1
    16     8    32    1
    17     8    33    1
    18     9    10    1
    19    10    11    2
    20    10    12    1
    21    12    18   ar
    22    12    13   ar
    23    13    14   ar
    24    13    34    1
    25    14    15   ar
    26    14    35    1
    27    15    16    1
    28    15    17   ar
    29    17    18   ar
    30    17    36    1
    31    18    19    1
    32    19    37    1
    33    20    21   am
    34    20    38    1
    35    21    22    2
    36    21    23   am
    37    23    24    1
    38    23    39    1
    39    24    25    1
    40    24    26    1
    41    26    40    1
    42    26    41    1
    43    26    42    1
@<TRIPOS>SUBSTRUCTURE
     1 ZINC000848949366        1 TEMP              0 ****  ****    0 ROOT


##########                                Name:    ZINC001362587626
##########                DOCK_Rotatable_Bonds:                   9
##########                         Heavy_Atoms:                  25
##########                    Molecular_Weight:             346.346
##########                DOCK_Rotatable_Bonds:                   9
##########                       Formal_Charge:        -4.02331e-07
##########                     HBond_Acceptors:                  10
##########                        HBond_Donors:                   2
##########                         Heavy_Atoms:                  25
##########                          Grid_Score:          -35.256458
##########                     Grid_vdw_energy:          -30.821777
##########                      Grid_es_energy:           -4.434681
##########           Internal_energy_repulsive:            9.411326

@<TRIPOS>MOLECULE
ZINC001362587626
 43 45 1 0 0
SMALL
USER_CHARGES


@<TRIPOS>ATOM
      1 C1         -8.4151    1.0138   67.1437 C.3     1  ZINC001362587626   -0.1600
      2 C2         -7.4530    0.5968   66.0296 C.3     1  ZINC001362587626    0.1300
      3 H3         -6.7559   -0.1490   66.4118 H       1  ZINC001362587626    0.1200
      4 N4         -6.7074    1.7689   65.5641 N.am    1  ZINC001362587626   -0.7100
      5 C5         -5.5360    2.0965   66.1447 C.2     1  ZINC001362587626    0.5100
      6 O6         -5.0983    1.4202   67.0513 O.2     1  ZINC001362587626   -0.5000
      7 C7         -4.7698    3.3033   65.6671 C.3     1  ZINC001362587626    0.1000
      8 N8         -3.8492    2.9058   64.5991 N.pl3   1  ZINC001362587626   -0.3100
      9 C9         -3.4295    3.6756   63.5779 C.2     1  ZINC001362587626    0.1600
     10 N10        -2.6204    2.9373   62.8579 N.2     1  ZINC001362587626   -0.3000
     11 N11        -2.5470    1.7748   63.4083 N.2     1  ZINC001362587626   -0.0700
     12 N12        -3.2840    1.7540   64.4637 N.2     1  ZINC001362587626   -0.0700
     13 C13        -8.2359    0.0115   64.8827 C.2     1  ZINC001362587626    0.5100
     14 O14        -8.4670   -1.1789   64.8512 O.2     1  ZINC001362587626   -0.5200
     15 N15        -8.6794    0.8106   63.8921 N.am    1  ZINC001362587626   -0.6600
     16 C16        -9.4073    0.2664   62.8259 C.ar    1  ZINC001362587626    0.1000
     17 C17       -10.7039    0.6971   62.5786 C.ar    1  ZINC001362587626   -0.1000
     18 C18       -11.4206    0.1607   61.5273 C.ar    1  ZINC001362587626   -0.1900
     19 C19       -10.8457   -0.8088   60.7186 C.ar    1  ZINC001362587626    0.1200
     20 O20       -11.5522   -1.3369   59.6838 O.3     1  ZINC001362587626   -0.2800
     21 C21       -10.8018   -1.8550   58.5834 C.3     1  ZINC001362587626    0.0100
     22 C22       -10.6909   -3.3913   58.5747 C.3     1  ZINC001362587626    0.0200
     23 O23       -11.8795   -3.3596   57.7593 O.3     1  ZINC001362587626   -0.3700
     24 C24       -11.6249   -2.0197   57.2919 C.3     1  ZINC001362587626    0.0400
     25 C25        -9.5502   -1.2394   60.9648 C.ar    1  ZINC001362587626   -0.1300
     26 C26        -8.8304   -0.6999   62.0126 C.ar    1  ZINC001362587626   -0.0800
     27 H27        -9.1122    1.7597   66.7615 H       1  ZINC001362587626    0.0700
     28 H28        -8.9699    0.1418   67.4900 H       1  ZINC001362587626    0.0800
     29 H29        -7.8489    1.4371   67.9733 H       1  ZINC001362587626    0.0800
     30 H30        -7.0567    2.3091   64.8383 H       1  ZINC001362587626    0.4100
     31 H31        -5.4675    4.0493   65.2865 H       1  ZINC001362587626    0.1500
     32 H32        -4.2031    3.7255   66.4968 H       1  ZINC001362587626    0.1400
     33 H33        -3.7062    4.7023   63.3881 H       1  ZINC001362587626    0.2400
     34 H34        -8.4946    1.7624   63.9174 H       1  ZINC001362587626    0.4100
     35 H35       -11.1518    1.4514   63.2085 H       1  ZINC001362587626    0.1300
     36 H36       -12.4292    0.4956   61.3348 H       1  ZINC001362587626    0.1400
     37 H37        -9.8512   -1.3423   58.4372 H       1  ZINC001362587626    0.0900
     38 H38        -9.8094   -3.7668   58.0550 H       1  ZINC001362587626    0.1000
     39 H39       -10.8390   -3.8497   59.5525 H       1  ZINC001362587626    0.1000
     40 H40       -12.5139   -1.3902   57.2522 H       1  ZINC001362587626    0.1000
     41 H41       -11.0287   -1.9763   56.3805 H       1  ZINC001362587626    0.1000
     42 H42        -9.1032   -1.9941   60.3348 H       1  ZINC001362587626    0.1400
     43 H43        -7.8216   -1.0348   62.2039 H       1  ZINC001362587626    0.1500
@<TRIPOS>BOND
     1     1     2    1
     2     1    27    1
     3     1    28    1
     4     1    29    1
     5     2     3    1
     6     2     4    1
     7     2    13    1
     8     4     5   am
     9     4    30    1
    10     5     6    2
    11     5     7    1
    12     7     8    1
    13     7    31    1
    14     7    32    1
    15     8    12    1
    16     8     9    1
    17     9    10    2
    18     9    33    1
    19    10    11    1
    20    11    12    2
    21    13    14    2
    22    13    15   am
    23    15    16    1
    24    15    34    1
    25    16    26   ar
    26    16    17   ar
    27    17    18   ar
    28    17    35    1
    29    18    19   ar
    30    18    36    1
    31    19    20    1
    32    19    25   ar
    33    20    21    1
    34    21    24    1
    35    21    22    1
    36    21    37    1
    37    22    23    1
    38    22    38    1
    39    22    39    1
    40    23    24    1
    41    24    40    1
    42    24    41    1
    43    25    26   ar
    44    25    42    1
    45    26    43    1
@<TRIPOS>SUBSTRUCTURE
     1 ZINC001362587626        1 TEMP              0 ****  ****    0 ROOT


##########                                Name:    ZINC000859496582
##########                DOCK_Rotatable_Bonds:                  10
##########                         Heavy_Atoms:                  26
##########                    Molecular_Weight:             361.438
##########                DOCK_Rotatable_Bonds:                  10
##########                       Formal_Charge:           0.0100006
##########                     HBond_Acceptors:                   6
##########                        HBond_Donors:                   0
##########                         Heavy_Atoms:                  26
##########                          Grid_Score:          -35.054638
##########                     Grid_vdw_energy:          -33.751469
##########                      Grid_es_energy:           -1.303170
##########           Internal_energy_repulsive:           22.521433

@<TRIPOS>MOLECULE
ZINC000859496582
 53 54 1 0 0
SMALL
USER_CHARGES


@<TRIPOS>ATOM
      1 C1         -0.7882    0.7202   61.1266 C.3     1  ZINC000859496582    0.0300
      2 O2         -0.8537    2.1654   61.2509 O.3     1  ZINC000859496582   -0.3600
      3 C3         -0.2535    2.8873   60.2915 C.2     1  ZINC000859496582    0.4600
      4 O4         -0.0943    4.0757   60.4402 O.2     1  ZINC000859496582   -0.5100
      5 C5          0.2216    2.2155   59.0290 C.3     1  ZINC000859496582   -0.1100
      6 C6         -0.6969    2.6033   57.8683 C.3     1  ZINC000859496582   -0.1100
      7 C7         -2.0903    2.0166   58.1026 C.3     1  ZINC000859496582   -0.1200
      8 C8         -3.1119    2.7728   57.2508 C.3     1  ZINC000859496582    0.0700
      9 O9         -2.7834    2.6129   55.8455 O.3     1  ZINC000859496582   -0.3500
     10 C10        -3.5572    3.2616   54.9612 C.2     1  ZINC000859496582    0.4700
     11 O11        -4.4483    3.9789   55.3502 O.2     1  ZINC000859496582   -0.5000
     12 C12        -3.3146    3.0951   53.4832 C.3     1  ZINC000859496582   -0.1000
     13 H13        -3.1272    2.0446   53.2613 H       1  ZINC000859496582    0.1200
     14 C14        -2.1007    3.9294   53.0676 C.3     1  ZINC000859496582   -0.1100
     15 C15        -1.8335    3.7353   51.5733 C.3     1  ZINC000859496582   -0.1300
     16 C16        -3.0484    4.2182   50.7746 C.3     1  ZINC000859496582    0.1100
     17 N17        -4.2454    3.5241   51.2687 N.am    1  ZINC000859496582   -0.6100
     18 C18        -5.0522    2.8576   50.4195 C.2     1  ZINC000859496582    0.5700
     19 O19        -4.7926    2.8266   49.2325 O.2     1  ZINC000859496582   -0.5300
     20 C20        -6.2533    2.1640   50.9319 C.ar    1  ZINC000859496582   -0.1400
     21 C21        -7.5123    2.7518   50.7990 C.ar    1  ZINC000859496582   -0.0900
     22 C22        -8.6289    2.0992   51.2789 C.ar    1  ZINC000859496582   -0.1200
     23 C23        -8.5028    0.8648   51.8911 C.ar    1  ZINC000859496582   -0.0600
     24 C24        -9.7270    0.1579   52.4133 C.3     1  ZINC000859496582   -0.1200
     25 C25        -7.2578    0.2764   52.0256 C.ar    1  ZINC000859496582   -0.1200
     26 C26        -6.1338    0.9161   51.5453 C.ar    1  ZINC000859496582   -0.0600
     27 C27        -4.5465    3.5700   52.7061 C.3     1  ZINC000859496582    0.1100
     28 H28         0.2543    0.4021   61.1298 H       1  ZINC000859496582    0.0600
     29 H29        -1.3113    0.2594   61.9646 H       1  ZINC000859496582    0.1000
     30 H30        -1.2586    0.4142   60.1923 H       1  ZINC000859496582    0.0600
     31 H31         1.2401    2.5348   58.8087 H       1  ZINC000859496582    0.1100
     32 H32         0.2008    1.1339   59.1629 H       1  ZINC000859496582    0.1100
     33 H33        -0.7655    3.6894   57.8066 H       1  ZINC000859496582    0.0800
     34 H34        -0.2897    2.2114   56.9362 H       1  ZINC000859496582    0.0800
     35 H35        -2.0928    0.9631   57.8230 H       1  ZINC000859496582    0.0800
     36 H36        -2.3529    2.1135   59.1561 H       1  ZINC000859496582    0.0800
     37 H37        -4.1085    2.3732   57.4386 H       1  ZINC000859496582    0.0700
     38 H38        -3.0897    3.8310   57.5111 H       1  ZINC000859496582    0.0700
     39 H39        -2.2982    4.9826   53.2675 H       1  ZINC000859496582    0.0800
     40 H40        -1.2281    3.6094   53.6371 H       1  ZINC000859496582    0.0800
     41 H41        -0.9549    4.3113   51.2831 H       1  ZINC000859496582    0.0900
     42 H42        -1.6603    2.6787   51.3689 H       1  ZINC000859496582    0.0700
     43 H43        -3.1686    5.2934   50.9067 H       1  ZINC000859496582    0.0700
     44 H44        -2.9046    3.9916   49.7181 H       1  ZINC000859496582    0.1000
     45 H45        -7.6119    3.7156   50.3220 H       1  ZINC000859496582    0.1300
     46 H46        -9.6037    2.5529   51.1768 H       1  ZINC000859496582    0.1300
     47 H47       -10.1425   -0.4759   51.6299 H       1  ZINC000859496582    0.0800
     48 H48        -9.4535   -0.4567   53.2709 H       1  ZINC000859496582    0.0700
     49 H49       -10.4704    0.8950   52.7169 H       1  ZINC000859496582    0.0700
     50 H50        -7.1662   -0.6874   52.5041 H       1  ZINC000859496582    0.1300
     51 H51        -5.1625    0.4555   51.6506 H       1  ZINC000859496582    0.1300
     52 H52        -5.3911    2.9161   52.9236 H       1  ZINC000859496582    0.1100
     53 H53        -4.7889    4.5923   52.9963 H       1  ZINC000859496582    0.0800
@<TRIPOS>BOND
     1     1     2    1
     2     1    28    1
     3     1    29    1
     4     1    30    1
     5     2     3    1
     6     3     4    2
     7     3     5    1
     8     5     6    1
     9     5    31    1
    10     5    32    1
    11     6     7    1
    12     6    33    1
    13     6    34    1
    14     7     8    1
    15     7    35    1
    16     7    36    1
    17     8     9    1
    18     8    37    1
    19     8    38    1
    20     9    10    1
    21    10    11    2
    22    10    12    1
    23    12    13    1
    24    12    27    1
    25    12    14    1
    26    14    15    1
    27    14    39    1
    28    14    40    1
    29    15    16    1
    30    15    41    1
    31    15    42    1
    32    16    17    1
    33    16    43    1
    34    16    44    1
    35    17    18   am
    36    17    27    1
    37    18    19    2
    38    18    20    1
    39    20    26   ar
    40    20    21   ar
    41    21    22   ar
    42    21    45    1
    43    22    23   ar
    44    22    46    1
    45    23    24    1
    46    23    25   ar
    47    24    47    1
    48    24    48    1
    49    24    49    1
    50    25    26   ar
    51    25    50    1
    52    26    51    1
    53    27    52    1
    54    27    53    1
@<TRIPOS>SUBSTRUCTURE
     1 ZINC000859496582        1 TEMP              0 ****  ****    0 ROOT


##########                                Name:    ZINC001289410668
##########                DOCK_Rotatable_Bonds:                  11
##########                         Heavy_Atoms:                  26
##########                    Molecular_Weight:             362.515
##########                DOCK_Rotatable_Bonds:                  11
##########                       Formal_Charge:          -0.0400008
##########                     HBond_Acceptors:                   6
##########                        HBond_Donors:                   1
##########                         Heavy_Atoms:                  26
##########                          Grid_Score:          -35.051407
##########                     Grid_vdw_energy:          -34.925022
##########                      Grid_es_energy:           -0.126385
##########           Internal_energy_repulsive:           15.838577

@<TRIPOS>MOLECULE
ZINC001289410668
 60 61 1 0 0
SMALL
USER_CHARGES


@<TRIPOS>ATOM
      1 C1          1.7681    2.7166   51.4475 C.3     1  ZINC001289410668   -0.1500
      2 C2          0.8387    3.6968   52.1661 C.3     1  ZINC001289410668   -0.1300
      3 C3         -0.2778    4.1316   51.2147 C.3     1  ZINC001289410668   -0.1200
      4 C4         -1.1578    2.9264   50.8764 C.3     1  ZINC001289410668   -0.1200
      5 C5         -2.3567    3.3875   50.0454 C.3     1  ZINC001289410668   -0.1100
      6 C6         -3.1988    2.1736   49.6478 C.3     1  ZINC001289410668   -0.1400
      7 C7         -4.2428    1.9186   50.7042 C.2     1  ZINC001289410668    0.5100
      8 O8         -3.9121    1.5118   51.7978 O.2     1  ZINC001289410668   -0.5300
      9 N9         -5.5440    2.1425   50.4336 N.am    1  ZINC001289410668   -0.7200
     10 C10        -6.5591    1.8929   51.4600 C.3     1  ZINC001289410668    0.1400
     11 H11        -6.1251    1.9517   52.4582 H       1  ZINC001289410668    0.1100
     12 C12        -7.2514    0.5255   51.2353 C.3     1  ZINC001289410668    0.0800
     13 N13        -8.5712    0.6605   51.8782 N.am    1  ZINC001289410668   -0.6200
     14 C14        -9.3272   -0.3549   52.3408 C.2     1  ZINC001289410668    0.5100
     15 O15        -8.9336   -1.4978   52.2422 O.2     1  ZINC001289410668   -0.5100
     16 C16       -10.6616   -0.0699   52.9806 C.3     1  ZINC001289410668    0.0900
     17 N17       -11.2262   -1.3148   53.5075 N.pl3   1  ZINC001289410668   -0.4500
     18 C18       -11.4954   -2.4509   52.7930 C.2     1  ZINC001289410668   -0.0500
     19 C19       -12.0017   -3.3468   53.6619 C.2     1  ZINC001289410668   -0.0200
     20 N20       -12.0405   -2.7733   54.8737 N.2     1  ZINC001289410668   -0.4800
     21 C21       -11.5728   -1.5579   54.7899 C.2     1  ZINC001289410668    0.2300
     22 C22       -11.4489   -0.5836   55.9330 C.3     1  ZINC001289410668   -0.0100
     23 C23       -12.6567    0.3556   55.9357 C.3     1  ZINC001289410668   -0.1400
     24 C24       -11.3975   -1.3522   57.2548 C.3     1  ZINC001289410668   -0.1400
     25 C25        -8.9259    2.0863   51.9317 C.3     1  ZINC001289410668    0.1100
     26 C26        -7.7515    2.8747   51.3133 C.3     1  ZINC001289410668   -0.1100
     27 H27        -7.9440    3.0924   50.2627 H       1  ZINC001289410668    0.0900
     28 C28        -7.4958    4.1657   52.0935 C.3     1  ZINC001289410668   -0.1400
     29 H29         2.5636    2.4069   52.1253 H       1  ZINC001289410668    0.0500
     30 H30         1.1994    1.8423   51.1310 H       1  ZINC001289410668    0.0500
     31 H31         2.2035    3.2025   50.5743 H       1  ZINC001289410668    0.0500
     32 H32         0.4033    3.2109   53.0393 H       1  ZINC001289410668    0.0600
     33 H33         1.4074    4.5712   52.4826 H       1  ZINC001289410668    0.0600
     34 H34        -0.8838    4.9010   51.6930 H       1  ZINC001289410668    0.0600
     35 H35         0.1596    4.5303   50.2993 H       1  ZINC001289410668    0.0600
     36 H36        -0.5773    2.2016   50.3057 H       1  ZINC001289410668    0.0600
     37 H37        -1.5108    2.4642   51.7982 H       1  ZINC001289410668    0.0600
     38 H38        -2.9646    4.0742   50.6346 H       1  ZINC001289410668    0.0700
     39 H39        -2.0032    3.8943   49.1476 H       1  ZINC001289410668    0.0700
     40 H40        -3.6877    2.3676   48.6931 H       1  ZINC001289410668    0.1000
     41 H41        -2.5546    1.2992   49.5550 H       1  ZINC001289410668    0.1000
     42 H42        -5.8084    2.4690   49.5594 H       1  ZINC001289410668    0.4000
     43 H43        -7.3670    0.3295   50.1693 H       1  ZINC001289410668    0.0800
     44 H44        -6.6787   -0.2721   51.7087 H       1  ZINC001289410668    0.0800
     45 H45       -10.5292    0.6424   53.7951 H       1  ZINC001289410668    0.1200
     46 H46       -11.3387    0.3500   52.2369 H       1  ZINC001289410668    0.1200
     47 H47       -11.3334   -2.6001   51.7357 H       1  ZINC001289410668    0.1700
     48 H48       -12.3205   -4.3510   53.4244 H       1  ZINC001289410668    0.1700
     49 H49       -10.5355   -0.0005   55.8159 H       1  ZINC001289410668    0.0700
     50 H50       -13.5701   -0.2276   56.0528 H       1  ZINC001289410668    0.0700
     51 H51       -12.5671    1.0602   56.7625 H       1  ZINC001289410668    0.0600
     52 H52       -12.6933    0.9032   54.9940 H       1  ZINC001289410668    0.0500
     53 H53       -12.3110   -1.9354   57.3718 H       1  ZINC001289410668    0.0700
     54 H54       -10.5370   -2.0214   57.2529 H       1  ZINC001289410668    0.0600
     55 H55       -11.3079   -0.6477   58.0816 H       1  ZINC001289410668    0.0600
     56 H56        -9.8352    2.2640   51.3577 H       1  ZINC001289410668    0.0800
     57 H57        -9.0729    2.3931   52.9672 H       1  ZINC001289410668    0.0800
     58 H58        -7.2763    3.9243   53.1335 H       1  ZINC001289410668    0.0600
     59 H59        -6.6477    4.6926   51.6561 H       1  ZINC001289410668    0.0600
     60 H60        -8.3810    4.8000   52.0467 H       1  ZINC001289410668    0.0700
@<TRIPOS>BOND
     1     1     2    1
     2     1    29    1
     3     1    30    1
     4     1    31    1
     5     2     3    1
     6     2    32    1
     7     2    33    1
     8     3     4    1
     9     3    34    1
    10     3    35    1
    11     4     5    1
    12     4    36    1
    13     4    37    1
    14     5     6    1
    15     5    38    1
    16     5    39    1
    17     6     7    1
    18     6    40    1
    19     6    41    1
    20     7     8    2
    21     7     9   am
    22     9    10    1
    23     9    42    1
    24    10    11    1
    25    10    26    1
    26    10    12    1
    27    12    13    1
    28    12    43    1
    29    12    44    1
    30    13    14   am
    31    13    25    1
    32    14    15    2
    33    14    16    1
    34    16    17    1
    35    16    45    1
    36    16    46    1
    37    17    21    1
    38    17    18    1
    39    18    19    2
    40    18    47    1
    41    19    20    1
    42    19    48    1
    43    20    21    2
    44    21    22    1
    45    22    23    1
    46    22    24    1
    47    22    49    1
    48    23    50    1
    49    23    51    1
    50    23    52    1
    51    24    53    1
    52    24    54    1
    53    24    55    1
    54    25    26    1
    55    25    56    1
    56    25    57    1
    57    26    27    1
    58    26    28    1
    59    28    58    1
    60    28    59    1
    61    28    60    1
@<TRIPOS>SUBSTRUCTURE
     1 ZINC001289410668        1 TEMP              0 ****  ****    0 ROOT


##########                                Name:    ZINC000599797189
##########                DOCK_Rotatable_Bonds:                  13
##########                         Heavy_Atoms:                  23
##########                    Molecular_Weight:             329.313
##########                DOCK_Rotatable_Bonds:                  13
##########                       Formal_Charge:          0.00999949
##########                     HBond_Acceptors:                  11
##########                        HBond_Donors:                   3
##########                         Heavy_Atoms:                  23
##########                          Grid_Score:          -34.966259
##########                     Grid_vdw_energy:          -32.975670
##########                      Grid_es_energy:           -1.990591
##########           Internal_energy_repulsive:            5.787647

@<TRIPOS>MOLECULE
ZINC000599797189
 42 42 1 0 0
SMALL
USER_CHARGES


@<TRIPOS>ATOM
      1 C1        -15.1196   -1.8482   54.8440 C.3     1  ZINC000599797189   -0.1500
      2 C2        -13.5978   -1.8910   54.9971 C.3     1  ZINC000599797189    0.0600
      3 O3        -13.0640   -2.9955   54.2204 O.3     1  ZINC000599797189   -0.3600
      4 C4        -11.8281   -2.8464   53.7186 C.2     1  ZINC000599797189    0.4500
      5 O5        -10.8819   -3.3377   54.2871 O.2     1  ZINC000599797189   -0.4800
      6 C6        -11.6206   -2.0661   52.4461 C.3     1  ZINC000599797189    0.1500
      7 N7        -10.5702   -1.0659   52.6524 N.pl3   1  ZINC000599797189   -0.3800
      8 C8        -10.7186    0.1572   53.1887 C.2     1  ZINC000599797189    0.2800
      9 N9         -9.5484    0.7430   53.2004 N.2     1  ZINC000599797189   -0.5100
     10 C10        -8.6283   -0.0744   52.6798 C.2     1  ZINC000599797189    0.4700
     11 N11        -7.2685    0.2188   52.5325 N.am    1  ZINC000599797189   -0.6400
     12 C12        -6.8673    1.1051   51.5998 C.2     1  ZINC000599797189    0.7100
     13 O13        -7.6871    1.6487   50.8852 O.2     1  ZINC000599797189   -0.5300
     14 N14        -5.5572    1.3887   51.4591 N.am    1  ZINC000599797189   -0.7300
     15 C15        -5.1213    2.3534   50.4464 C.3     1  ZINC000599797189    0.1100
     16 C16        -3.5942    2.3407   50.3539 C.3     1  ZINC000599797189    0.1100
     17 H17        -3.2460    1.3149   50.2335 H       1  ZINC000599797189    0.1200
     18 O18        -3.1786    3.1198   49.2303 O.3     1  ZINC000599797189   -0.5400
     19 C19        -3.0006    2.9339   51.6333 C.3     1  ZINC000599797189   -0.1500
     20 C20        -1.4986    2.9738   51.5187 C.2     1  ZINC000599797189    0.4600
     21 O21        -0.8802    3.8936   52.0002 O.2     1  ZINC000599797189   -0.4900
     22 O22        -0.8476    1.9878   50.8819 O.3     1  ZINC000599797189   -0.3600
     23 C23         0.5990    2.0913   50.8111 C.3     1  ZINC000599797189    0.0400
     24 N24        -9.2089   -1.1987   52.3342 N.2     1  ZINC000599797189   -0.3200
     25 H25       -15.5203   -1.0191   55.4271 H       1  ZINC000599797189    0.0800
     26 H26       -15.3753   -1.7107   53.7934 H       1  ZINC000599797189    0.0700
     27 H27       -15.5473   -2.7846   55.2024 H       1  ZINC000599797189    0.0700
     28 H28       -13.1702   -0.9546   54.6387 H       1  ZINC000599797189    0.0700
     29 H29       -13.3422   -2.0285   56.0478 H       1  ZINC000599797189    0.0700
     30 H30       -11.3233   -2.7458   51.6476 H       1  ZINC000599797189    0.1500
     31 H31       -12.5492   -1.5663   52.1709 H       1  ZINC000599797189    0.1300
     32 H32       -11.6436    0.5833   53.5478 H       1  ZINC000599797189    0.2300
     33 H33        -6.6142   -0.2158   53.1019 H       1  ZINC000599797189    0.4200
     34 H34        -4.9030    0.9542   52.0285 H       1  ZINC000599797189    0.4000
     35 H35        -5.5462    2.0826   49.4799 H       1  ZINC000599797189    0.0800
     36 H36        -5.4601    3.3512   50.7255 H       1  ZINC000599797189    0.0800
     37 H37        -3.5193    4.0248   49.2316 H       1  ZINC000599797189    0.3800
     38 H38        -3.3812    3.9454   51.7754 H       1  ZINC000599797189    0.1200
     39 H39        -3.2837    2.3161   52.4855 H       1  ZINC000599797189    0.1200
     40 H40         0.8726    3.0079   50.2886 H       1  ZINC000599797189    0.0600
     41 H41         1.0117    2.1110   51.8198 H       1  ZINC000599797189    0.0600
     42 H42         0.9987    1.2325   50.2717 H       1  ZINC000599797189    0.1000
@<TRIPOS>BOND
     1     1     2    1
     2     1    25    1
     3     1    26    1
     4     1    27    1
     5     2     3    1
     6     2    28    1
     7     2    29    1
     8     3     4    1
     9     4     5    2
    10     4     6    1
    11     6     7    1
    12     6    30    1
    13     6    31    1
    14     7    24    1
    15     7     8    1
    16     8     9    2
    17     8    32    1
    18     9    10    1
    19    10    11    1
    20    10    24    2
    21    11    12   am
    22    11    33    1
    23    12    13    2
    24    12    14   am
    25    14    15    1
    26    14    34    1
    27    15    16    1
    28    15    35    1
    29    15    36    1
    30    16    17    1
    31    16    18    1
    32    16    19    1
    33    18    37    1
    34    19    20    1
    35    19    38    1
    36    19    39    1
    37    20    21    2
    38    20    22    1
    39    22    23    1
    40    23    40    1
    41    23    41    1
    42    23    42    1
@<TRIPOS>SUBSTRUCTURE
     1 ZINC000599797189        1 TEMP              0 ****  ****    0 ROOT


##########                                Name:    ZINC000045927156
##########                DOCK_Rotatable_Bonds:                   7
##########                         Heavy_Atoms:                  30
##########                    Molecular_Weight:             418.522
##########                DOCK_Rotatable_Bonds:                   7
##########                       Formal_Charge:           0.0200001
##########                     HBond_Acceptors:                   8
##########                        HBond_Donors:                   1
##########                         Heavy_Atoms:                  30
##########                          Grid_Score:          -34.961246
##########                     Grid_vdw_energy:          -34.002033
##########                      Grid_es_energy:           -0.959214
##########           Internal_energy_repulsive:           13.878565

@<TRIPOS>MOLECULE
ZINC000045927156
 52 56 1 0 0
SMALL
USER_CHARGES


@<TRIPOS>ATOM
      1 O1         -9.2095   -0.8629   52.5252 O.2     1  ZINC000045927156   -0.5800
      2 C2         -9.7566    0.2059   52.3330 C.2     1  ZINC000045927156    0.7300
      3 N3         -9.0201    1.2990   52.0517 N.am    1  ZINC000045927156   -0.7400
      4 C4         -7.5600    1.2007   51.9832 C.3     1  ZINC000045927156    0.1700
      5 C5         -6.9483    2.5159   52.3922 C.ar    1  ZINC000045927156   -0.0700
      6 C6         -7.5985    3.3269   53.3030 C.ar    1  ZINC000045927156   -0.1000
      7 C7         -7.0374    4.5334   53.6783 C.ar    1  ZINC000045927156   -0.1100
      8 C8         -5.8260    4.9284   53.1429 C.ar    1  ZINC000045927156   -0.1100
      9 C9         -5.1750    4.1166   52.2324 C.ar    1  ZINC000045927156   -0.1000
     10 C10        -5.7339    2.9085   51.8606 C.ar    1  ZINC000045927156   -0.1000
     11 C11        -5.0244    2.0236   50.8682 C.3     1  ZINC000045927156    0.1700
     12 N12        -3.6206    2.4305   50.7676 N.pl3   1  ZINC000045927156   -0.3800
     13 C13        -3.0431    3.0867   49.7463 C.2     1  ZINC000045927156    0.2500
     14 N14        -1.7801    3.2625   50.0390 N.2     1  ZINC000045927156   -0.5400
     15 C15        -1.5153    2.7348   51.2334 C.2     1  ZINC000045927156    0.2000
     16 N16        -2.6122    2.2182   51.7219 N.2     1  ZINC000045927156   -0.3100
     17 N17       -11.0999    0.2962   52.3960 N.am    1  ZINC000045927156   -0.6200
     18 C18       -11.8896    1.5224   52.1805 C.3     1  ZINC000045927156    0.1000
     19 C19       -13.2895    1.0213   51.7460 C.3     1  ZINC000045927156   -0.1300
     20 C20       -13.4544   -0.2450   52.6273 C.3     1  ZINC000045927156   -0.1200
     21 C21       -12.0208   -0.8129   52.6845 C.3     1  ZINC000045927156    0.2300
     22 H22       -11.9043   -1.6010   51.9405 H       1  ZINC000045927156    0.1000
     23 C23       -11.7412   -1.3616   54.0600 C.2     1  ZINC000045927156    0.0900
     24 N24       -11.4427   -0.6421   55.0747 N.2     1  ZINC000045927156   -0.4500
     25 C25       -11.2183   -1.2682   56.2457 C.ar    1  ZINC000045927156    0.0800
     26 C26       -10.8777   -0.7306   57.5030 C.ar    1  ZINC000045927156   -0.0700
     27 C27       -10.6918   -1.5492   58.5758 C.ar    1  ZINC000045927156   -0.1100
     28 C28       -10.8340   -2.9240   58.4530 C.ar    1  ZINC000045927156   -0.1000
     29 C29       -11.1663   -3.4772   57.2367 C.ar    1  ZINC000045927156   -0.0700
     30 C30       -11.3602   -2.6556   56.1287 C.ar    1  ZINC000045927156   -0.1800
     31 S31       -11.7905   -3.0196   54.4605 S.3     1  ZINC000045927156    0.1200
     32 H32        -9.4569    2.1507   51.8944 H       1  ZINC000045927156    0.3900
     33 H33        -7.2168    0.4153   52.6565 H       1  ZINC000045927156    0.1000
     34 H34        -7.2593    0.9618   50.9631 H       1  ZINC000045927156    0.0700
     35 H35        -8.5453    3.0183   53.7214 H       1  ZINC000045927156    0.1300
     36 H36        -7.5458    5.1675   54.3894 H       1  ZINC000045927156    0.1300
     37 H37        -5.3879    5.8712   53.4354 H       1  ZINC000045927156    0.1300
     38 H38        -4.2285    4.4253   51.8138 H       1  ZINC000045927156    0.1300
     39 H39        -5.0792    0.9873   51.2014 H       1  ZINC000045927156    0.1100
     40 H40        -5.5007    2.1174   49.8923 H       1  ZINC000045927156    0.1000
     41 H41        -3.5356    3.4113   48.8417 H       1  ZINC000045927156    0.2200
     42 H42        -0.5516    2.7375   51.7210 H       1  ZINC000045927156    0.2200
     43 H43       -11.9617    2.0945   53.1055 H       1  ZINC000045927156    0.0700
     44 H44       -11.4422    2.1282   51.3925 H       1  ZINC000045927156    0.0800
     45 H45       -14.0575    1.7598   51.9756 H       1  ZINC000045927156    0.0900
     46 H46       -13.3011    0.7642   50.6868 H       1  ZINC000045927156    0.0800
     47 H47       -13.8075    0.0217   53.6235 H       1  ZINC000045927156    0.0900
     48 H48       -14.1306   -0.9578   52.1555 H       1  ZINC000045927156    0.0900
     49 H49       -10.7628    0.3373   57.6168 H       1  ZINC000045927156    0.1300
     50 H50       -10.4302   -1.1233   59.5332 H       1  ZINC000045927156    0.1400
     51 H51       -10.6835   -3.5607   59.3122 H       1  ZINC000045927156    0.1400
     52 H52       -11.2761   -4.5474   57.1418 H       1  ZINC000045927156    0.1300
@<TRIPOS>BOND
     1     1     2    2
     2     2     3   am
     3     2    17   am
     4     3     4    1
     5     3    32    1
     6     4     5    1
     7     4    33    1
     8     4    34    1
     9     5    10   ar
    10     5     6   ar
    11     6     7   ar
    12     6    35    1
    13     7     8   ar
    14     7    36    1
    15     8     9   ar
    16     8    37    1
    17     9    10   ar
    18     9    38    1
    19    10    11    1
    20    11    12    1
    21    11    39    1
    22    11    40    1
    23    12    16    1
    24    12    13    1
    25    13    14    2
    26    13    41    1
    27    14    15    1
    28    15    16    2
    29    15    42    1
    30    17    21    1
    31    17    18    1
    32    18    19    1
    33    18    43    1
    34    18    44    1
    35    19    20    1
    36    19    45    1
    37    19    46    1
    38    20    21    1
    39    20    47    1
    40    20    48    1
    41    21    22    1
    42    21    23    1
    43    23    31    1
    44    23    24    2
    45    24    25    1
    46    25    30   ar
    47    25    26   ar
    48    26    27   ar
    49    26    49    1
    50    27    28   ar
    51    27    50    1
    52    28    29   ar
    53    28    51    1
    54    29    30   ar
    55    29    52    1
    56    30    31    1
@<TRIPOS>SUBSTRUCTURE
     1 ZINC000045927156        1 TEMP              0 ****  ****    0 ROOT


##########                                Name:    ZINC000508571532
##########                DOCK_Rotatable_Bonds:                   9
##########                         Heavy_Atoms:                  30
##########                    Molecular_Weight:             422.407
##########                DOCK_Rotatable_Bonds:                   9
##########                       Formal_Charge:           0.0100001
##########                     HBond_Acceptors:                  10
##########                        HBond_Donors:                   0
##########                         Heavy_Atoms:                  30
##########                          Grid_Score:          -34.929726
##########                     Grid_vdw_energy:          -34.816769
##########                      Grid_es_energy:           -0.112955
##########           Internal_energy_repulsive:           18.101576

@<TRIPOS>MOLECULE
ZINC000508571532
 51 53 1 0 0
SMALL
USER_CHARGES


@<TRIPOS>ATOM
      1 C1         -3.9172    3.1924   49.8138 C.3     1  ZINC000508571532    0.0300
      2 O2         -5.1921    3.8306   49.9096 O.3     1  ZINC000508571532   -0.3200
      3 C3         -6.2183    3.0887   50.4052 C.ar    1  ZINC000508571532    0.0900
      4 C4         -7.4839    3.6444   50.5188 C.ar    1  ZINC000508571532   -0.1700
      5 C5         -8.5265    2.8908   51.0223 C.ar    1  ZINC000508571532   -0.1100
      6 C6         -8.3076    1.5783   51.4137 C.ar    1  ZINC000508571532    0.0900
      7 O7         -9.3337    0.8367   51.9097 O.3     1  ZINC000508571532   -0.3100
      8 C8         -9.0455   -0.5191   52.2573 C.3     1  ZINC000508571532    0.1500
      9 C9        -10.2902   -1.1747   52.7977 C.2     1  ZINC000508571532    0.1700
     10 N10       -10.9201   -2.1870   52.2724 N.2     1  ZINC000508571532   -0.2500
     11 N11       -11.9418   -2.4912   52.9905 N.2     1  ZINC000508571532   -0.3000
     12 C12       -12.0190   -1.6826   54.0209 C.2     1  ZINC000508571532    0.3500
     13 N13       -12.9857   -1.7033   55.0138 N.3     1  ZINC000508571532   -0.4600
     14 C14       -14.3000   -1.3260   54.4769 C.3     1  ZINC000508571532    0.0300
     15 C15       -13.0414   -3.0181   55.6668 C.3     1  ZINC000508571532    0.1100
     16 C16       -12.4659   -2.9140   57.0557 C.ar    1  ZINC000508571532   -0.0900
     17 C17       -11.1681   -3.3196   57.2983 C.ar    1  ZINC000508571532   -0.0600
     18 C18       -10.6397   -3.2248   58.5727 C.ar    1  ZINC000508571532   -0.1300
     19 C19       -11.4082   -2.7236   59.6067 C.ar    1  ZINC000508571532   -0.0700
     20 C20       -12.7069   -2.3161   59.3691 C.ar    1  ZINC000508571532   -0.1900
     21 C21       -13.2376   -2.4053   58.0907 C.ar    1  ZINC000508571532    0.1100
     22 O22       -14.5146   -2.0051   57.8544 O.3     1  ZINC000508571532   -0.3100
     23 C23       -15.5589   -2.8076   58.4089 C.3     1  ZINC000508571532    0.6000
     24 F24       -15.9342   -2.2900   59.6533 F       1  ZINC000508571532   -0.1600
     25 F25       -16.6617   -2.7977   57.5481 F       1  ZINC000508571532   -0.1300
     26 F26       -15.1035   -4.1207   58.5681 F       1  ZINC000508571532   -0.1600
     27 N27       -10.9645   -0.8210   53.9336 N.pl3   1  ZINC000508571532   -0.4500
     28 C28       -10.6298    0.2641   54.8591 C.3     1  ZINC000508571532    0.0800
     29 C29        -7.0422    1.0222   51.2988 C.ar    1  ZINC000508571532   -0.1700
     30 C30        -6.0006    1.7746   50.7918 C.ar    1  ZINC000508571532   -0.1100
     31 H31        -3.1898    3.8932   49.4041 H       1  ZINC000508571532    0.1000
     32 H32        -3.5954    2.8728   50.8050 H       1  ZINC000508571532    0.0600
     33 H33        -3.9938    2.3241   49.1592 H       1  ZINC000508571532    0.0600
     34 H34        -7.6544    4.6664   50.2140 H       1  ZINC000508571532    0.1400
     35 H35        -9.5119    3.3237   51.1114 H       1  ZINC000508571532    0.1300
     36 H36        -8.7067   -1.0570   51.3719 H       1  ZINC000508571532    0.0800
     37 H37        -8.2642   -0.5412   53.0170 H       1  ZINC000508571532    0.1000
     38 H38       -14.6535   -2.1046   53.8009 H       1  ZINC000508571532    0.0600
     39 H39       -15.0076   -1.2086   55.2976 H       1  ZINC000508571532    0.0800
     40 H40       -14.2140   -0.3849   53.9338 H       1  ZINC000508571532    0.0700
     41 H41       -14.0779   -3.3502   55.7269 H       1  ZINC000508571532    0.0700
     42 H42       -12.4627   -3.7367   55.0865 H       1  ZINC000508571532    0.0900
     43 H43       -10.5657   -3.7114   56.4921 H       1  ZINC000508571532    0.1400
     44 H44        -9.6249   -3.5431   58.7605 H       1  ZINC000508571532    0.1300
     45 H45       -10.9933   -2.6509   60.6011 H       1  ZINC000508571532    0.1400
     46 H46       -13.3070   -1.9250   60.1774 H       1  ZINC000508571532    0.1400
     47 H47        -9.8993   -0.0909   55.5861 H       1  ZINC000508571532    0.0900
     48 H48       -10.2100    1.1011   54.3012 H       1  ZINC000508571532    0.0900
     49 H49       -11.5310    0.5893   55.3788 H       1  ZINC000508571532    0.1000
     50 H50        -6.8719    0.0001   51.6033 H       1  ZINC000508571532    0.1400
     51 H51        -5.0153    1.3416   50.7023 H       1  ZINC000508571532    0.1400
@<TRIPOS>BOND
     1     1     2    1
     2     1    31    1
     3     1    32    1
     4     1    33    1
     5     2     3    1
     6     3    30   ar
     7     3     4   ar
     8     4     5   ar
     9     4    34    1
    10     5     6   ar
    11     5    35    1
    12     6     7    1
    13     6    29   ar
    14     7     8    1
    15     8     9    1
    16     8    36    1
    17     8    37    1
    18     9    27    1
    19     9    10    2
    20    10    11    1
    21    11    12    2
    22    12    13    1
    23    12    27    1
    24    13    14    1
    25    13    15    1
    26    14    38    1
    27    14    39    1
    28    14    40    1
    29    15    16    1
    30    15    41    1
    31    15    42    1
    32    16    21   ar
    33    16    17   ar
    34    17    18   ar
    35    17    43    1
    36    18    19   ar
    37    18    44    1
    38    19    20   ar
    39    19    45    1
    40    20    21   ar
    41    20    46    1
    42    21    22    1
    43    22    23    1
    44    23    24    1
    45    23    25    1
    46    23    26    1
    47    27    28    1
    48    28    47    1
    49    28    48    1
    50    28    49    1
    51    29    30   ar
    52    29    50    1
    53    30    51    1
@<TRIPOS>SUBSTRUCTURE
     1 ZINC000508571532        1 TEMP              0 ****  ****    0 ROOT


##########                                Name:    ZINC000193795672
##########                DOCK_Rotatable_Bonds:                  10
##########                         Heavy_Atoms:                  23
##########                    Molecular_Weight:              332.47
##########                DOCK_Rotatable_Bonds:                  10
##########                       Formal_Charge:        -2.98023e-07
##########                     HBond_Acceptors:                   6
##########                        HBond_Donors:                   3
##########                         Heavy_Atoms:                  23
##########                          Grid_Score:          -34.895000
##########                     Grid_vdw_energy:          -34.429676
##########                      Grid_es_energy:           -0.465325
##########           Internal_energy_repulsive:            9.643280

@<TRIPOS>MOLECULE
ZINC000193795672
 47 48 1 0 0
SMALL
USER_CHARGES


@<TRIPOS>ATOM
      1 C1         -6.7335    2.0680   52.0210 C.3     1  <0>        -0.1000
      2 C2         -7.9075    1.1252   52.0855 C.ar    1  <0>        -0.2000
      3 C3         -9.1898    1.6154   52.2929 C.ar    1  <0>        -0.0300
      4 C4        -10.2398    0.7162   52.3453 C.ar    1  <0>        -0.2400
      5 C5         -9.9768   -0.6407   52.1892 C.ar    1  <0>         0.4000
      6 N6        -11.0225   -1.5552   52.2395 N.pl3   1  <0>        -0.7300
      7 C7        -11.7631   -1.7533   53.4880 C.3     1  <0>         0.1300
      8 C8        -11.5921   -3.1991   53.9585 C.3     1  <0>        -0.1400
      9 C9        -12.2679   -3.3756   55.3198 C.3     1  <0>         0.1400
     10 N10       -11.2498   -3.3816   56.3732 N.am    1  <0>        -0.7500
     11 C11       -11.3623   -2.5453   57.4240 C.2     1  <0>         0.7100
     12 O12       -12.3097   -1.7867   57.4985 O.2     1  <0>        -0.5900
     13 N13       -10.4249   -2.5496   58.3923 N.am    1  <0>        -0.7400
     14 C14       -10.5482   -1.6417   59.5354 C.3     1  <0>         0.1700
     15 H15       -10.9212   -0.6762   59.1939 H       1  <0>         0.0900
     16 C16       -11.5239   -2.2341   60.5542 C.3     1  <0>        -0.1700
     17 C17        -9.1776   -1.4565   60.1898 C.3     1  <0>        -0.0600
     18 C18        -9.3010   -0.5079   61.3542 C.2     1  <0>        -0.1700
     19 C19        -8.5728   -0.5617   62.4704 C.2     1  <0>        -0.1400
     20 C20        -8.8634    0.4179   63.4042 C.2     1  <0>        -0.1300
     21 C21        -9.8276    1.2673   63.0463 C.2     1  <0>        -0.2100
     22 S22       -10.4221    0.8443   61.4460 S.3     1  <0>         0.0900
     23 N23        -8.7394   -1.0690   51.9927 N.ar    1  <0>        -0.5400
     24 C24        -7.7194   -0.2340   51.9334 C.ar    1  <0>         0.1500
     25 H25        -6.5828    2.3905   50.9907 H       1  <0>         0.0700
     26 H26        -6.9304    2.9371   52.6486 H       1  <0>         0.0600
     27 H27        -5.8381    1.5582   52.3767 H       1  <0>         0.0700
     28 H28        -9.3636    2.6748   52.4112 H       1  <0>         0.1300
     29 H29       -11.2500    1.0631   52.5055 H       1  <0>         0.1300
     30 H30       -11.2620   -2.0622   51.4479 H       1  <0>         0.4000
     31 H31       -11.3784   -1.0753   54.2500 H       1  <0>         0.0700
     32 H32       -12.8203   -1.5485   53.3197 H       1  <0>         0.0700
     33 H33       -12.0508   -3.8732   53.2351 H       1  <0>         0.0800
     34 H34       -10.5304   -3.4291   54.0473 H       1  <0>         0.0800
     35 H35       -12.9621   -2.5528   55.4902 H       1  <0>         0.0700
     36 H36       -12.8124   -4.3197   55.3354 H       1  <0>         0.0700
     37 H37       -10.4946   -3.9876   56.3144 H       1  <0>         0.4000
     38 H38        -9.6684   -3.1539   58.3322 H       1  <0>         0.3900
     39 H39       -11.1508   -3.1997   60.8957 H       1  <0>         0.0600
     40 H40       -11.6156   -1.5586   61.4048 H       1  <0>         0.0700
     41 H41       -12.5003   -2.3661   60.0881 H       1  <0>         0.0700
     42 H42        -8.8106   -2.4200   60.5433 H       1  <0>         0.1000
     43 H43        -8.4790   -1.0471   59.4601 H       1  <0>         0.0800
     44 H44        -7.8142   -1.3129   62.6334 H       1  <0>         0.1400
     45 H45        -8.3486    0.4890   64.3511 H       1  <0>         0.1400
     46 H46       -10.1859    2.0910   63.6459 H       1  <0>         0.1600
     47 H47        -6.7237   -0.6196   51.7718 H       1  <0>         0.1500
@<TRIPOS>BOND
     1     1     2    1
     2     1    25    1
     3     1    26    1
     4     1    27    1
     5     2    24   ar
     6     2     3   ar
     7     3     4   ar
     8     3    28    1
     9     4     5   ar
    10     4    29    1
    11     5     6    1
    12     5    23   ar
    13     6     7    1
    14     6    30    1
    15     7     8    1
    16     7    31    1
    17     7    32    1
    18     8     9    1
    19     8    33    1
    20     8    34    1
    21     9    10    1
    22     9    35    1
    23     9    36    1
    24    10    11   am
    25    10    37    1
    26    11    12    2
    27    11    13   am
    28    13    14    1
    29    13    38    1
    30    14    15    1
    31    14    16    1
    32    14    17    1
    33    16    39    1
    34    16    40    1
    35    16    41    1
    36    17    18    1
    37    17    42    1
    38    17    43    1
    39    18    22    1
    40    18    19    2
    41    19    20    1
    42    19    44    1
    43    20    21    2
    44    20    45    1
    45    21    22    1
    46    21    46    1
    47    23    24   ar
    48    24    47    1
@<TRIPOS>SUBSTRUCTURE
     1 <0>         1 TEMP              0 ****  ****    0 ROOT


##########                                Name:    ZINC000541000201
##########                DOCK_Rotatable_Bonds:                  10
##########                         Heavy_Atoms:                  30
##########                    Molecular_Weight:             420.413
##########                DOCK_Rotatable_Bonds:                  10
##########                       Formal_Charge:               -0.03
##########                     HBond_Acceptors:                   9
##########                        HBond_Donors:                   1
##########                         Heavy_Atoms:                  30
##########                          Grid_Score:          -34.840897
##########                     Grid_vdw_energy:          -34.377178
##########                      Grid_es_energy:           -0.463719
##########           Internal_energy_repulsive:           19.025478

@<TRIPOS>MOLECULE
ZINC000541000201
 52 54 1 0 0
SMALL
USER_CHARGES


@<TRIPOS>ATOM
      1 C1        -14.3484   -5.2146   55.6634 C.3     1  ZINC000541000201    0.0400
      2 O2        -13.6556   -4.0378   56.1571 O.3     1  ZINC000541000201   -0.3500
      3 C3        -12.9207   -3.3470   55.2714 C.2     1  ZINC000541000201    0.4500
      4 O4        -12.6323   -3.8432   54.2082 O.2     1  ZINC000541000201   -0.4900
      5 C5        -12.4555   -1.9526   55.6032 C.3     1  ZINC000541000201    0.2100
      6 H6        -13.3008   -1.2662   55.5540 H       1  ZINC000541000201    0.1400
      7 N7        -11.4324   -1.5371   54.6404 N.am    1  ZINC000541000201   -0.7100
      8 C8        -11.0207   -0.2542   54.6061 C.2     1  ZINC000541000201    0.5800
      9 O9        -11.4972    0.5579   55.3752 O.2     1  ZINC000541000201   -0.5300
     10 C10        -9.9911    0.1648   53.6347 C.ar    1  ZINC000541000201   -0.2300
     11 C11        -9.4617    1.4629   53.6743 C.ar    1  ZINC000541000201    0.0200
     12 C12        -8.5014    1.8075   52.7451 C.ar    1  ZINC000541000201   -0.2000
     13 C13        -8.0929    0.8646   51.8073 C.ar    1  ZINC000541000201    0.3500
     14 O14        -7.1503    1.1974   50.8926 O.3     1  ZINC000541000201   -0.2900
     15 C15        -6.4618    2.4338   51.0910 C.3     1  ZINC000541000201    0.0800
     16 C16        -5.4626    2.3150   52.2684 C.3     1  ZINC000541000201   -0.1400
     17 C17        -4.4354    3.4323   51.9590 C.3     1  ZINC000541000201   -0.1200
     18 C18        -4.2851    3.3936   50.4242 C.3     1  ZINC000541000201   -0.1200
     19 C19        -5.5736    2.7588   49.8723 C.3     1  ZINC000541000201   -0.1200
     20 N20        -8.6118   -0.3539   51.7960 N.ar    1  ZINC000541000201   -0.5400
     21 C21        -9.5259   -0.7266   52.6669 C.ar    1  ZINC000541000201    0.1800
     22 C22       -11.8739   -1.9345   56.9933 C.ar    1  ZINC000541000201   -0.1300
     23 C23       -10.7926   -2.7400   57.2996 C.ar    1  ZINC000541000201   -0.0700
     24 C24       -10.2577   -2.7252   58.5732 C.ar    1  ZINC000541000201   -0.1300
     25 C25       -10.8061   -1.9009   59.5451 C.ar    1  ZINC000541000201    0.1200
     26 O26       -10.2813   -1.8844   60.7986 O.3     1  ZINC000541000201   -0.3200
     27 C27        -8.9764   -1.3214   60.9481 C.3     1  ZINC000541000201    0.4100
     28 F28        -8.7429   -0.4050   59.9171 F       1  ZINC000541000201   -0.2000
     29 F29        -8.8892   -0.6675   62.1819 F       1  ZINC000541000201   -0.2000
     30 C30       -11.8907   -1.0935   59.2351 C.ar    1  ZINC000541000201   -0.1900
     31 C31       -12.4189   -1.1083   57.9587 C.ar    1  ZINC000541000201   -0.0500
     32 H32       -14.9033   -5.6784   56.4790 H       1  ZINC000541000201    0.1000
     33 H33       -15.0398   -4.9241   54.8724 H       1  ZINC000541000201    0.0600
     34 H34       -13.6220   -5.9248   55.2683 H       1  ZINC000541000201    0.0600
     35 H35       -11.0513   -2.1853   54.0275 H       1  ZINC000541000201    0.4100
     36 H36        -9.7975    2.1752   54.4133 H       1  ZINC000541000201    0.1600
     37 H37        -8.0719    2.7985   52.7457 H       1  ZINC000541000201    0.1500
     38 H38        -7.1724    3.2405   51.2710 H       1  ZINC000541000201    0.1000
     39 H39        -5.9618    2.5019   53.2191 H       1  ZINC000541000201    0.0700
     40 H40        -4.9811    1.3371   52.2693 H       1  ZINC000541000201    0.0800
     41 H41        -4.8172    4.4013   52.2807 H       1  ZINC000541000201    0.0700
     42 H42        -3.4816    3.2178   52.4412 H       1  ZINC000541000201    0.0700
     43 H43        -4.1707    4.4052   50.0346 H       1  ZINC000541000201    0.0700
     44 H44        -3.4224    2.7871   50.1487 H       1  ZINC000541000201    0.0700
     45 H45        -5.3361    1.8443   49.3288 H       1  ZINC000541000201    0.0800
     46 H46        -6.0845    3.4622   49.2148 H       1  ZINC000541000201    0.0700
     47 H47        -9.9256   -1.7291   52.6268 H       1  ZINC000541000201    0.1600
     48 H48       -10.3660   -3.3813   56.5427 H       1  ZINC000541000201    0.1300
     49 H49        -9.4135   -3.3550   58.8121 H       1  ZINC000541000201    0.1400
     50 H50        -8.2309   -2.1154   60.9042 H       1  ZINC000541000201    0.1900
     51 H51       -12.3196   -0.4512   59.9901 H       1  ZINC000541000201    0.1400
     52 H52       -13.2631   -0.4796   57.7168 H       1  ZINC000541000201    0.1400
@<TRIPOS>BOND
     1     1     2    1
     2     1    32    1
     3     1    33    1
     4     1    34    1
     5     2     3    1
     6     3     4    2
     7     3     5    1
     8     5     6    1
     9     5     7    1
    10     5    22    1
    11     7     8   am
    12     7    35    1
    13     8     9    2
    14     8    10    1
    15    10    21   ar
    16    10    11   ar
    17    11    12   ar
    18    11    36    1
    19    12    13   ar
    20    12    37    1
    21    13    14    1
    22    13    20   ar
    23    14    15    1
    24    15    19    1
    25    15    16    1
    26    15    38    1
    27    16    17    1
    28    16    39    1
    29    16    40    1
    30    17    18    1
    31    17    41    1
    32    17    42    1
    33    18    19    1
    34    18    43    1
    35    18    44    1
    36    19    45    1
    37    19    46    1
    38    20    21   ar
    39    21    47    1
    40    22    31   ar
    41    22    23   ar
    42    23    24   ar
    43    23    48    1
    44    24    25   ar
    45    24    49    1
    46    25    26    1
    47    25    30   ar
    48    26    27    1
    49    27    28    1
    50    27    29    1
    51    27    50    1
    52    30    31   ar
    53    30    51    1
    54    31    52    1
@<TRIPOS>SUBSTRUCTURE
     1 ZINC000541000201        1 TEMP              0 ****  ****    0 ROOT


##########                                Name:     oleObject14.pdb
##########                DOCK_Rotatable_Bonds:                   9
##########                         Heavy_Atoms:                  33
##########                    Molecular_Weight:             484.424
##########                DOCK_Rotatable_Bonds:                   9
##########                       Formal_Charge:         0.000299782
##########                     HBond_Acceptors:                   7
##########                        HBond_Donors:                   1
##########                         Heavy_Atoms:                  33
##########                          Grid_Score:          -34.830460
##########                     Grid_vdw_energy:          -34.558933
##########                      Grid_es_energy:           -0.271527
##########           Internal_energy_repulsive:           11.139688

@<TRIPOS>MOLECULE
oleObject14.pdb
 60 63 1 0 0
SMALL
NO_CHARGES


@<TRIPOS>ATOM
      1 C          -0.7688    2.5813   58.1481 C.ar    1  UNL         0.0422
      2 C          -2.1502    2.5125   57.9082 C.ar    1  UNL        -0.0408
      3 C          -2.7077    3.1845   56.8075 C.ar    1  UNL        -0.0288
      4 C          -1.8829    3.9310   55.9389 C.ar    1  UNL         0.0937
      5 C          -0.4964    3.9943   56.1874 C.ar    1  UNL         0.0723
      6 C           0.0582    3.3214   57.2888 C.ar    1  UNL        -0.0221
      7 CL          0.5649    4.9101   55.1335 Cl      1  UNL        -0.0814
      8 O          -2.3913    4.6059   54.8458 O.3     1  UNL        -0.3432
      9 C          -3.0902    3.9608   53.7665 C.3     1  UNL         0.0661
     10 C          -3.4320    5.0382   52.7165 C.3     1  UNL         0.0222
     11 N          -4.3740    4.5693   51.6759 N.4     1  UNL        -0.3010
     12 C          -4.0651    3.2243   51.1367 C.3     1  UNL        -0.0010
     13 C          -5.0114    2.8366   49.9785 C.3     1  UNL        -0.0289
     14 C          -6.5069    2.9498   50.3608 C.3     1  UNL         0.0382
     15 C          -6.7870    4.3291   51.0090 C.3     1  UNL        -0.0289
     16 C          -5.7782    4.7008   52.1212 C.3     1  UNL        -0.0010
     17 C          -6.9581    1.7736   51.2618 C.2     1  UNL         0.2156
     18 O          -6.2765    0.7751   51.4057 O.2     1  UNL        -0.2774
     19 N          -8.1500    1.8629   51.9694 N.am    1  UNL        -0.3025
     20 C          -8.7402    0.8552   52.8702 C.3     1  UNL         0.0900
     21 C          -8.6344    1.2398   54.3448 C.ar    1  UNL        -0.0217
     22 C          -7.5086    1.9289   54.8395 C.ar    1  UNL        -0.0568
     23 C          -7.4224    2.2650   56.2004 C.ar    1  UNL        -0.0619
     24 C          -8.4622    1.9183   57.0773 C.ar    1  UNL        -0.0622
     25 C          -9.5894    1.2374   56.5913 C.ar    1  UNL        -0.0619
     26 C          -9.6753    0.9015   55.2304 C.ar    1  UNL        -0.0568
     27 C         -10.1861    0.5426   52.4965 C.ar    1  UNL         0.0652
     28 C         -10.7362   -0.7438   52.6740 C.ar    1  UNL        -0.0383
     29 C         -12.0709   -0.9717   52.3028 C.ar    1  UNL        -0.0588
     30 C         -12.8092    0.0942   51.7656 C.ar    1  UNL        -0.0438
     31 C         -12.1827    1.3440   51.6210 C.ar    1  UNL         0.0272
     32 N         -10.9010    1.5646   51.9769 N.ar    1  UNL        -0.2590
     33 CL         -0.0771    1.7429   59.5205 Cl      1  UNL        -0.0843
     34 H          -2.7895    1.9392   58.5736 H       1  UNL         0.0639
     35 H          -3.7779    3.1171   56.6409 H       1  UNL         0.0652
     36 H           1.1272    3.3740   57.4753 H       1  UNL         0.0655
     37 H          -4.0081    3.4926   54.1417 H       1  UNL         0.0586
     38 H          -2.4544    3.1929   53.3073 H       1  UNL         0.0586
     39 H          -2.4928    5.3467   52.2390 H       1  UNL         0.0455
     40 H          -3.8462    5.9176   53.2269 H       1  UNL         0.0455
     41 H          -4.1466    2.4771   51.9370 H       1  UNL         0.0431
     42 H          -3.0384    3.1889   50.7545 H       1  UNL         0.0431
     43 H          -4.7811    1.8198   49.6398 H       1  UNL         0.0288
     44 H          -4.8118    3.5020   49.1286 H       1  UNL         0.0288
     45 H          -7.0838    2.9304   49.4323 H       1  UNL         0.0402
     46 H          -7.8090    4.3566   51.4080 H       1  UNL         0.0288
     47 H          -6.7354    5.0995   50.2287 H       1  UNL         0.0288
     48 H          -5.9484    4.0606   52.9959 H       1  UNL         0.0431
     49 H          -5.9731    5.7351   52.4330 H       1  UNL         0.0431
     50 H          -8.6144    2.7613   51.9291 H       1  UNL         0.1504
     51 H          -8.1739   -0.0728   52.7193 H       1  UNL         0.0624
     52 H          -6.6942    2.1973   54.1731 H       1  UNL         0.0626
     53 H          -6.5498    2.7926   56.5747 H       1  UNL         0.0623
     54 H          -8.3957    2.1786   58.1299 H       1  UNL         0.0623
     55 H         -10.3965    0.9715   57.2680 H       1  UNL         0.0623
     56 H         -10.5530    0.3763   54.8637 H       1  UNL         0.0626
     57 H         -10.1417   -1.5511   53.0910 H       1  UNL         0.0643
     58 H         -12.5221   -1.9517   52.4283 H       1  UNL         0.0624
     59 H         -13.8442   -0.0434   51.4667 H       1  UNL         0.0639
     60 H         -12.7233    2.1944   51.2074 H       1  UNL         0.0840
@<TRIPOS>BOND
     1     1     2   ar
     2     1     6   ar
     3     1    33    1
     4     2     3   ar
     5     2    34    1
     6     3     4   ar
     7     3    35    1
     8     4     5   ar
     9     4     8    1
    10     5     6   ar
    11     5     7    1
    12     6    36    1
    13     8     9    1
    14     9    10    1
    15     9    37    1
    16     9    38    1
    17    10    11    1
    18    10    39    1
    19    10    40    1
    20    11    12    1
    21    11    16    1
    22    12    13    1
    23    12    41    1
    24    12    42    1
    25    13    14    1
    26    13    43    1
    27    13    44    1
    28    14    15    1
    29    14    17    1
    30    14    45    1
    31    15    16    1
    32    15    46    1
    33    15    47    1
    34    16    48    1
    35    16    49    1
    36    17    18    2
    37    17    19   am
    38    19    20    1
    39    19    50    1
    40    20    21    1
    41    20    27    1
    42    20    51    1
    43    21    22   ar
    44    21    26   ar
    45    22    23   ar
    46    22    52    1
    47    23    24   ar
    48    23    53    1
    49    24    25   ar
    50    24    54    1
    51    25    26   ar
    52    25    55    1
    53    26    56    1
    54    27    28   ar
    55    27    32   ar
    56    28    29   ar
    57    28    57    1
    58    29    30   ar
    59    29    58    1
    60    30    31   ar
    61    30    59    1
    62    31    32   ar
    63    31    60    1
@<TRIPOS>SUBSTRUCTURE
     1 UNL         1 TEMP              0 ****  ****    0 ROOT


##########                                Name:    ZINC000512699033
##########                DOCK_Rotatable_Bonds:                   9
##########                         Heavy_Atoms:                  30
##########                    Molecular_Weight:              405.54
##########                DOCK_Rotatable_Bonds:                   9
##########                       Formal_Charge:           0.0199988
##########                     HBond_Acceptors:                   5
##########                        HBond_Donors:                   2
##########                         Heavy_Atoms:                  30
##########                          Grid_Score:          -34.743706
##########                     Grid_vdw_energy:          -33.748638
##########                      Grid_es_energy:           -0.995069
##########           Internal_energy_repulsive:           19.586809

@<TRIPOS>MOLECULE
ZINC000512699033
 61 64 1 0 0
SMALL
USER_CHARGES


@<TRIPOS>ATOM
      1 O1        -12.1437   -3.9986   56.6841 O.2     1  ZINC000512699033   -0.5100
      2 C2        -12.2773   -2.8734   56.2518 C.2     1  ZINC000512699033    0.5200
      3 C3        -11.4859   -2.4296   55.0486 C.3     1  ZINC000512699033   -0.1500
      4 C4        -12.0670   -1.1207   54.5102 C.3     1  ZINC000512699033    0.1300
      5 N5        -10.9830   -0.1614   54.2844 N.am    1  ZINC000512699033   -0.7300
      6 C6        -10.1833   -0.2896   53.2072 C.2     1  ZINC000512699033    0.5200
      7 O7        -10.3617   -1.1983   52.4241 O.2     1  ZINC000512699033   -0.5300
      8 C8         -9.0670    0.6961   52.9759 C.3     1  ZINC000512699033   -0.1100
      9 C9         -8.0148    0.0692   52.0591 C.3     1  ZINC000512699033   -0.1100
     10 C10        -6.8816    1.0701   51.8243 C.3     1  ZINC000512699033   -0.1200
     11 C11        -7.4437    2.3322   51.1672 C.3     1  ZINC000512699033   -0.1200
     12 C12        -8.4960    2.9591   52.0842 C.3     1  ZINC000512699033   -0.1200
     13 C13        -9.6292    1.9583   52.3189 C.3     1  ZINC000512699033   -0.1000
     14 N14       -13.1376   -2.0216   56.8440 N.am    1  ZINC000512699033   -0.6600
     15 C15       -13.8725   -2.4337   57.9613 C.ar    1  ZINC000512699033    0.1700
     16 C16       -14.8667   -3.3933   57.8248 C.ar    1  ZINC000512699033   -0.1400
     17 C17       -15.5900   -3.7983   58.9298 C.ar    1  ZINC000512699033   -0.1000
     18 C18       -15.3251   -3.2489   60.1706 C.ar    1  ZINC000512699033   -0.1400
     19 C19       -14.3355   -2.2928   60.3098 C.ar    1  ZINC000512699033   -0.0900
     20 C20       -13.6050   -1.8878   59.2101 C.ar    1  ZINC000512699033   -0.1200
     21 C21       -12.5268   -0.8461   59.3627 C.3     1  ZINC000512699033    0.0900
     22 N22       -11.4122   -1.4052   60.1394 N.3     1  ZINC000512699033   -0.4700
     23 C23       -10.1842   -1.4891   59.3192 C.3     1  ZINC000512699033    0.0500
     24 C24        -9.0640   -1.2946   60.3667 C.3     1  ZINC000512699033   -0.0900
     25 C25        -9.7584   -0.5075   61.4601 C.ar    1  ZINC000512699033   -0.1400
     26 C26        -9.2609    0.2206   62.5200 C.ar    1  ZINC000512699033   -0.0800
     27 C27       -10.1267    0.8616   63.3881 C.ar    1  ZINC000512699033   -0.1400
     28 C28       -11.4922    0.7710   63.1910 C.ar    1  ZINC000512699033   -0.0900
     29 C29       -11.9951    0.0419   62.1334 C.ar    1  ZINC000512699033   -0.1400
     30 C30       -11.1297   -0.6091   61.2563 C.ar    1  ZINC000512699033    0.0900
     31 H31       -10.4456   -2.2747   55.3348 H       1  ZINC000512699033    0.1100
     32 H32       -11.5397   -3.1962   54.2754 H       1  ZINC000512699033    0.1000
     33 H33       -12.5842   -1.3123   53.5701 H       1  ZINC000512699033    0.0800
     34 H34       -12.7704   -0.7103   55.2347 H       1  ZINC000512699033    0.0800
     35 H35       -10.8411    0.5661   54.9101 H       1  ZINC000512699033    0.4000
     36 H36        -8.6088    0.9565   53.9301 H       1  ZINC000512699033    0.1000
     37 H37        -7.6143   -0.8299   52.5272 H       1  ZINC000512699033    0.0700
     38 H38        -8.4730   -0.1911   51.1050 H       1  ZINC000512699033    0.0700
     39 H39        -6.4233    1.3304   52.7784 H       1  ZINC000512699033    0.0600
     40 H40        -6.1319    0.6235   51.1711 H       1  ZINC000512699033    0.0700
     41 H41        -6.6364    3.0452   51.0000 H       1  ZINC000512699033    0.0600
     42 H42        -7.9020    2.0718   50.2131 H       1  ZINC000512699033    0.0600
     43 H43        -8.0378    3.2195   53.0382 H       1  ZINC000512699033    0.0600
     44 H44        -8.8965    3.8583   51.6160 H       1  ZINC000512699033    0.0700
     45 H45       -10.0874    1.6979   51.3647 H       1  ZINC000512699033    0.0700
     46 H46       -10.3789    2.4049   52.9721 H       1  ZINC000512699033    0.0700
     47 H47       -13.2475   -1.1230   56.4957 H       1  ZINC000512699033    0.4200
     48 H48       -15.0745   -3.8223   56.8557 H       1  ZINC000512699033    0.1500
     49 H49       -16.3634   -4.5446   58.8242 H       1  ZINC000512699033    0.1300
     50 H50       -15.8925   -3.5667   61.0328 H       1  ZINC000512699033    0.1200
     51 H51       -14.1309   -1.8655   61.2803 H       1  ZINC000512699033    0.1200
     52 H52       -12.1691   -0.5464   58.3777 H       1  ZINC000512699033    0.0600
     53 H53       -12.9317    0.0225   59.8820 H       1  ZINC000512699033    0.0900
     54 H54       -10.1032   -2.4663   58.8431 H       1  ZINC000512699033    0.1000
     55 H55       -10.1607   -0.6924   58.5756 H       1  ZINC000512699033    0.0600
     56 H56        -8.7174   -2.2567   60.7443 H       1  ZINC000512699033    0.0900
     57 H57        -8.2367   -0.7232   59.9457 H       1  ZINC000512699033    0.0800
     58 H58        -8.1941    0.2905   62.6728 H       1  ZINC000512699033    0.1200
     59 H59        -9.7366    1.4312   64.2186 H       1  ZINC000512699033    0.1300
     60 H60       -12.1677    1.2728   63.8679 H       1  ZINC000512699033    0.1300
     61 H61       -13.0629   -0.0252   61.9851 H       1  ZINC000512699033    0.1200
@<TRIPOS>BOND
     1     1     2    2
     2     2     3    1
     3     2    14   am
     4     3     4    1
     5     3    31    1
     6     3    32    1
     7     4     5    1
     8     4    33    1
     9     4    34    1
    10     5     6   am
    11     5    35    1
    12     6     7    2
    13     6     8    1
    14     8    13    1
    15     8     9    1
    16     8    36    1
    17     9    10    1
    18     9    37    1
    19     9    38    1
    20    10    11    1
    21    10    39    1
    22    10    40    1
    23    11    12    1
    24    11    41    1
    25    11    42    1
    26    12    13    1
    27    12    43    1
    28    12    44    1
    29    13    45    1
    30    13    46    1
    31    14    15    1
    32    14    47    1
    33    15    20   ar
    34    15    16   ar
    35    16    17   ar
    36    16    48    1
    37    17    18   ar
    38    17    49    1
    39    18    19   ar
    40    18    50    1
    41    19    20   ar
    42    19    51    1
    43    20    21    1
    44    21    22    1
    45    21    52    1
    46    21    53    1
    47    22    30    1
    48    22    23    1
    49    23    24    1
    50    23    54    1
    51    23    55    1
    52    24    25    1
    53    24    56    1
    54    24    57    1
    55    25    30   ar
    56    25    26   ar
    57    26    27   ar
    58    26    58    1
    59    27    28   ar
    60    27    59    1
    61    28    29   ar
    62    28    60    1
    63    29    30   ar
    64    29    61    1
@<TRIPOS>SUBSTRUCTURE
     1 ZINC000512699033        1 TEMP              0 ****  ****    0 ROOT


##########                                Name:     oleObject42.pdb
##########                DOCK_Rotatable_Bonds:                   9
##########                         Heavy_Atoms:                  36
##########                    Molecular_Weight:             527.493
##########                DOCK_Rotatable_Bonds:                   9
##########                       Formal_Charge:         9.99384e-05
##########                     HBond_Acceptors:                   8
##########                        HBond_Donors:                   0
##########                         Heavy_Atoms:                  36
##########                          Grid_Score:          -34.685646
##########                     Grid_vdw_energy:          -34.402599
##########                      Grid_es_energy:           -0.283048
##########           Internal_energy_repulsive:           42.754543

@<TRIPOS>MOLECULE
oleObject42.pdb
 68 71 1 0 0
SMALL
NO_CHARGES


@<TRIPOS>ATOM
      1 C         -13.0619    2.9371   59.6894 C.ar    1  UNL        -0.0435
      2 C         -11.7216    3.2894   59.4745 C.ar    1  UNL        -0.0559
      3 C         -10.9041    2.4418   58.7033 C.ar    1  UNL        -0.0272
      4 C         -11.4732    1.2572   58.1716 C.ar    1  UNL         0.0699
      5 N         -12.7687    0.9291   58.3868 N.ar    1  UNL        -0.2586
      6 C         -13.5425    1.7464   59.1252 C.ar    1  UNL         0.0272
      7 C         -10.6497    0.2784   57.3171 C.3     1  UNL         0.1101
      8 C         -10.6218   -1.1530   57.8877 C.ar    1  UNL         0.0699
      9 C         -10.3110   -1.3984   59.2491 C.ar    1  UNL        -0.0272
     10 C         -10.2925   -2.7307   59.7029 C.ar    1  UNL        -0.0559
     11 C         -10.5786   -3.7647   58.8000 C.ar    1  UNL        -0.0435
     12 C         -10.8726   -3.4324   57.4695 C.ar    1  UNL         0.0272
     13 N         -10.8915   -2.1618   57.0259 N.ar    1  UNL        -0.2586
     14 C          -9.9995   -0.2715   60.2280 C.3     1  UNL        -0.0379
     15 N         -10.9853    0.3550   55.8681 N.am    1  UNL        -0.2902
     16 C         -10.1916    1.0302   54.9399 C.2     1  UNL         0.2180
     17 O          -9.3278    1.8048   55.3172 O.2     1  UNL        -0.2772
     18 C         -10.6684    1.0240   53.4667 C.3     1  UNL         0.0385
     19 C         -10.0606   -0.1642   52.6829 C.3     1  UNL        -0.0289
     20 C          -8.5707    0.0586   52.3458 C.3     1  UNL        -0.0010
     21 N          -8.3651    1.3285   51.6162 N.4     1  UNL        -0.3010
     22 C          -8.8856    2.5190   52.3243 C.3     1  UNL        -0.0010
     23 C         -10.3702    2.3563   52.7300 C.3     1  UNL        -0.0289
     24 C          -6.9973    1.4985   51.0777 C.3     1  UNL         0.0222
     25 C          -6.8201    2.7546   50.1955 C.3     1  UNL         0.0661
     26 O          -5.4287    3.1102   50.2103 O.3     1  UNL        -0.3432
     27 C          -4.7836    3.2219   51.4174 C.ar    1  UNL         0.0937
     28 C          -5.4598    3.8071   52.5011 C.ar    1  UNL        -0.0288
     29 C          -4.8186    3.9340   53.7445 C.ar    1  UNL        -0.0408
     30 C          -3.4992    3.4778   53.9018 C.ar    1  UNL         0.0422
     31 C          -2.8186    2.8969   52.8186 C.ar    1  UNL        -0.0221
     32 C          -3.4582    2.7688   51.5741 C.ar    1  UNL         0.0723
     33 CL         -2.5850    2.0448   50.2365 Cl      1  UNL        -0.0814
     34 CL         -2.6997    3.6361   55.4512 Cl      1  UNL        -0.0843
     35 C         -12.3008   -0.1838   55.4681 C.3     1  UNL         0.0038
     36 C          -9.4473    2.8241   58.4650 C.3     1  UNL        -0.0379
     37 H         -13.7151    3.5733   60.2793 H       1  UNL         0.0639
     38 H         -11.3262    4.2076   59.8998 H       1  UNL         0.0627
     39 H         -14.5772    1.4368   59.2670 H       1  UNL         0.0840
     40 H          -9.6187    0.6331   57.3945 H       1  UNL         0.0643
     41 H         -10.0613   -2.9625   60.7388 H       1  UNL         0.0627
     42 H         -10.5728   -4.8014   59.1233 H       1  UNL         0.0639
     43 H         -11.1002   -4.2050   56.7362 H       1  UNL         0.0840
     44 H          -9.0891    0.2660   59.9353 H       1  UNL         0.0280
     45 H          -9.8415   -0.6524   61.2447 H       1  UNL         0.0280
     46 H         -10.8228    0.4517   60.2769 H       1  UNL         0.0280
     47 H         -11.7572    0.9107   53.4553 H       1  UNL         0.0402
     48 H         -10.6168   -0.2952   51.7456 H       1  UNL         0.0288
     49 H         -10.1757   -1.0958   53.2495 H       1  UNL         0.0288
     50 H          -8.2182   -0.7829   51.7357 H       1  UNL         0.0431
     51 H          -7.9917    0.0610   53.2781 H       1  UNL         0.0431
     52 H          -8.7939    3.4030   51.6803 H       1  UNL         0.0431
     53 H          -8.2886    2.7091   53.2239 H       1  UNL         0.0431
     54 H         -10.9799    2.3936   51.8179 H       1  UNL         0.0288
     55 H         -10.6839    3.2064   53.3493 H       1  UNL         0.0288
     56 H          -6.7286    0.6148   50.4848 H       1  UNL         0.0455
     57 H          -6.2857    1.5557   51.9114 H       1  UNL         0.0455
     58 H          -7.4221    3.5814   50.5919 H       1  UNL         0.0586
     59 H          -7.1432    2.5460   49.1682 H       1  UNL         0.0586
     60 H          -6.4792    4.1606   52.3762 H       1  UNL         0.0652
     61 H          -5.3430    4.3853   54.5821 H       1  UNL         0.0639
     62 H          -1.7974    2.5478   52.9430 H       1  UNL         0.0655
     63 H         -12.5874   -1.0223   56.1149 H       1  UNL         0.0433
     64 H         -12.2587   -0.5455   54.4329 H       1  UNL         0.0433
     65 H         -13.0603    0.6045   55.5414 H       1  UNL         0.0433
     66 H          -9.2043    3.7918   58.9214 H       1  UNL         0.0280
     67 H          -9.2280    2.9073   57.3937 H       1  UNL         0.0280
     68 H          -8.7675    2.0801   58.8974 H       1  UNL         0.0280
@<TRIPOS>BOND
     1     1     2   ar
     2     1     6   ar
     3     1    37    1
     4     2     3   ar
     5     2    38    1
     6     3     4   ar
     7     3    36    1
     8     4     5   ar
     9     4     7    1
    10     5     6   ar
    11     6    39    1
    12     7     8    1
    13     7    15    1
    14     7    40    1
    15     8     9   ar
    16     8    13   ar
    17     9    10   ar
    18     9    14    1
    19    10    11   ar
    20    10    41    1
    21    11    12   ar
    22    11    42    1
    23    12    13   ar
    24    12    43    1
    25    14    44    1
    26    14    45    1
    27    14    46    1
    28    15    16   am
    29    15    35    1
    30    16    17    2
    31    16    18    1
    32    18    19    1
    33    18    23    1
    34    18    47    1
    35    19    20    1
    36    19    48    1
    37    19    49    1
    38    20    21    1
    39    20    50    1
    40    20    51    1
    41    21    22    1
    42    21    24    1
    43    22    23    1
    44    22    52    1
    45    22    53    1
    46    23    54    1
    47    23    55    1
    48    24    25    1
    49    24    56    1
    50    24    57    1
    51    25    26    1
    52    25    58    1
    53    25    59    1
    54    26    27    1
    55    27    28   ar
    56    27    32   ar
    57    28    29   ar
    58    28    60    1
    59    29    30   ar
    60    29    61    1
    61    30    31   ar
    62    30    34    1
    63    31    32   ar
    64    31    62    1
    65    32    33    1
    66    35    63    1
    67    35    64    1
    68    35    65    1
    69    36    66    1
    70    36    67    1
    71    36    68    1
@<TRIPOS>SUBSTRUCTURE
     1 UNL         1 TEMP              0 ****  ****    0 ROOT


##########                                Name:    ZINC000623695407
##########                DOCK_Rotatable_Bonds:                  10
##########                         Heavy_Atoms:                  27
##########                    Molecular_Weight:             368.479
##########                DOCK_Rotatable_Bonds:                  10
##########                       Formal_Charge:           0.0299989
##########                     HBond_Acceptors:                   6
##########                        HBond_Donors:                   2
##########                         Heavy_Atoms:                  27
##########                          Grid_Score:          -34.625443
##########                     Grid_vdw_energy:          -33.621529
##########                      Grid_es_energy:           -1.003913
##########           Internal_energy_repulsive:           13.172743

@<TRIPOS>MOLECULE
ZINC000623695407
 55 57 1 0 0
SMALL
USER_CHARGES


@<TRIPOS>ATOM
      1 C1        -13.7735   -0.3895   51.1122 C.3     1  ZINC000623695407    0.0300
      2 O2        -13.1049   -0.7654   52.3179 O.3     1  ZINC000623695407   -0.3200
      3 C3        -11.8054   -0.3889   52.4460 C.ar    1  ZINC000623695407    0.1300
      4 C4        -11.4925    0.8915   52.8787 C.ar    1  ZINC000623695407   -0.2100
      5 C5        -10.1707    1.2717   53.0086 C.ar    1  ZINC000623695407   -0.0600
      6 C6         -9.1602    0.3775   52.7073 C.ar    1  ZINC000623695407   -0.1100
      7 C7         -7.7191    0.7950   52.8493 C.3     1  ZINC000623695407    0.0600
      8 N8         -7.2544    1.3870   51.5877 N.3     1  ZINC000623695407   -0.4600
      9 C9         -7.9408    2.6644   51.3189 C.3     1  ZINC000623695407    0.0000
     10 C10        -6.5915    3.2268   50.8500 C.3     1  ZINC000623695407   -0.1300
     11 C11        -6.0151    2.1602   51.7917 C.3     1  ZINC000623695407    0.0100
     12 H12        -5.8850    2.5098   52.8159 H       1  ZINC000623695407    0.0900
     13 C13        -4.7665    1.4699   51.2391 C.3     1  ZINC000623695407    0.1600
     14 N14        -3.5709    2.0806   51.8253 N.am    1  ZINC000623695407   -0.7400
     15 C15        -2.4597    2.2378   51.0790 C.2     1  ZINC000623695407    0.7100
     16 O16        -2.4490    1.8715   49.9197 O.2     1  ZINC000623695407   -0.5900
     17 N17        -1.3603    2.8012   51.6179 N.am    1  ZINC000623695407   -0.7400
     18 C18        -0.1518    2.9705   50.8072 C.3     1  ZINC000623695407    0.1700
     19 H19         0.0136    2.0739   50.2098 H       1  ZINC000623695407    0.0900
     20 C20        -0.3239    4.1760   49.8808 C.3     1  ZINC000623695407   -0.1600
     21 C21         1.0502    3.2004   51.7254 C.3     1  ZINC000623695407   -0.0900
     22 C22         2.2003    2.3382   51.2729 C.ar    1  ZINC000623695407   -0.0300
     23 C23         3.0278    1.7171   52.1958 C.ar    1  ZINC000623695407   -0.1700
     24 C24         4.0727    0.9337   51.7434 C.ar    1  ZINC000623695407    0.1000
     25 N25         4.2866    0.7748   50.4520 N.ar    1  ZINC000623695407   -0.4900
     26 C26         3.5203    1.3502   49.5461 C.ar    1  ZINC000623695407    0.1000
     27 C27         2.4528    2.1427   49.9236 C.ar    1  ZINC000623695407   -0.1700
     28 C28        -9.4695   -0.8993   52.2762 C.ar    1  ZINC000623695407   -0.0700
     29 C29       -10.7896   -1.2861   52.1497 C.ar    1  ZINC000623695407   -0.1500
     30 H30       -14.8014   -0.7512   51.1387 H       1  ZINC000623695407    0.1000
     31 H31       -13.7729    0.6967   51.0199 H       1  ZINC000623695407    0.0600
     32 H32       -13.2562   -0.8270   50.2583 H       1  ZINC000623695407    0.0600
     33 H33       -12.2815    1.5906   53.1136 H       1  ZINC000623695407    0.1300
     34 H34        -9.9266    2.2684   53.3455 H       1  ZINC000623695407    0.1200
     35 H35        -7.6309    1.5296   53.6496 H       1  ZINC000623695407    0.0600
     36 H36        -7.1099   -0.0769   53.0875 H       1  ZINC000623695407    0.0700
     37 H37        -8.6838    2.5992   50.5241 H       1  ZINC000623695407    0.0900
     38 H38        -8.3246    3.1485   52.2169 H       1  ZINC000623695407    0.0700
     39 H39        -6.3781    3.0535   49.7952 H       1  ZINC000623695407    0.1000
     40 H40        -6.4010    4.2521   51.1671 H       1  ZINC000623695407    0.0800
     41 H41        -4.7949    0.4101   51.4930 H       1  ZINC000623695407    0.0700
     42 H42        -4.7384    1.5832   50.1553 H       1  ZINC000623695407    0.0700
     43 H43        -3.5790    2.3718   52.7505 H       1  ZINC000623695407    0.3900
     44 H44        -1.3692    3.0946   52.5424 H       1  ZINC000623695407    0.3900
     45 H45         0.5754    4.3019   49.2777 H       1  ZINC000623695407    0.0700
     46 H46        -1.1802    4.0122   49.2266 H       1  ZINC000623695407    0.0700
     47 H47        -0.4892    5.0726   50.4782 H       1  ZINC000623695407    0.0600
     48 H48         1.3440    4.2493   51.6837 H       1  ZINC000623695407    0.1000
     49 H49         0.7809    2.9391   52.7488 H       1  ZINC000623695407    0.0800
     50 H50         2.8581    1.8439   53.2548 H       1  ZINC000623695407    0.1300
     51 H51         4.7218    0.4464   52.4559 H       1  ZINC000623695407    0.1500
     52 H52         3.7267    1.1971   48.4971 H       1  ZINC000623695407    0.1600
     53 H53         1.8284    2.6110   49.1771 H       1  ZINC000623695407    0.1400
     54 H54        -8.6783   -1.5961   52.0417 H       1  ZINC000623695407    0.1200
     55 H55       -11.0308   -2.2835   51.8130 H       1  ZINC000623695407    0.1300
@<TRIPOS>BOND
     1     1     2    1
     2     1    30    1
     3     1    31    1
     4     1    32    1
     5     2     3    1
     6     3    29   ar
     7     3     4   ar
     8     4     5   ar
     9     4    33    1
    10     5     6   ar
    11     5    34    1
    12     6     7    1
    13     6    28   ar
    14     7     8    1
    15     7    35    1
    16     7    36    1
    17     8    11    1
    18     8     9    1
    19     9    10    1
    20     9    37    1
    21     9    38    1
    22    10    11    1
    23    10    39    1
    24    10    40    1
    25    11    12    1
    26    11    13    1
    27    13    14    1
    28    13    41    1
    29    13    42    1
    30    14    15   am
    31    14    43    1
    32    15    16    2
    33    15    17   am
    34    17    18    1
    35    17    44    1
    36    18    19    1
    37    18    20    1
    38    18    21    1
    39    20    45    1
    40    20    46    1
    41    20    47    1
    42    21    22    1
    43    21    48    1
    44    21    49    1
    45    22    27   ar
    46    22    23   ar
    47    23    24   ar
    48    23    50    1
    49    24    25   ar
    50    24    51    1
    51    25    26   ar
    52    26    27   ar
    53    26    52    1
    54    27    53    1
    55    28    29   ar
    56    28    54    1
    57    29    55    1
@<TRIPOS>SUBSTRUCTURE
     1 ZINC000623695407        1 TEMP              0 ****  ****    0 ROOT


##########                                Name:    ZINC000110375116
##########                DOCK_Rotatable_Bonds:                  10
##########                         Heavy_Atoms:                  27
##########                    Molecular_Weight:             396.511
##########                DOCK_Rotatable_Bonds:                  10
##########                       Formal_Charge:        -2.23517e-07
##########                     HBond_Acceptors:                   9
##########                        HBond_Donors:                   0
##########                         Heavy_Atoms:                  27
##########                          Grid_Score:          -34.623650
##########                     Grid_vdw_energy:          -33.776005
##########                      Grid_es_energy:           -0.847645
##########           Internal_energy_repulsive:           30.086657

@<TRIPOS>MOLECULE
ZINC000110375116
 55 56 1 0 0
SMALL
USER_CHARGES


@<TRIPOS>ATOM
      1 C1         -9.0922   -0.9022   61.0844 C.3     1  ZINC000110375116   -0.1700
      2 C2         -8.6939   -1.1236   59.6237 C.3     1  ZINC000110375116    0.1000
      3 N3         -9.6763   -0.4813   58.7470 N.am    1  ZINC000110375116   -0.6200
      4 C4        -10.9412   -1.1561   58.4460 C.3     1  ZINC000110375116    0.1100
      5 C5        -10.7445   -2.6709   58.5331 C.3     1  ZINC000110375116   -0.1700
      6 C6         -9.4163    0.7305   58.2174 C.2     1  ZINC000110375116    0.5100
      7 O7         -8.3685    1.2885   58.4653 O.2     1  ZINC000110375116   -0.5300
      8 C8        -10.4277    1.3919   57.3169 C.3     1  ZINC000110375116   -0.1400
      9 C9        -10.2543    0.8736   55.8879 C.3     1  ZINC000110375116   -0.0900
     10 C10        -9.2444    1.7516   55.1460 C.3     1  ZINC000110375116   -0.1400
     11 C11        -8.9834    1.1721   53.7796 C.2     1  ZINC000110375116    0.5200
     12 O12        -9.4118    0.0738   53.4947 O.2     1  ZINC000110375116   -0.5300
     13 N13        -8.2738    1.8744   52.8741 N.am    1  ZINC000110375116   -0.6200
     14 C14        -7.7448    3.2045   53.2069 C.3     1  ZINC000110375116    0.0900
     15 C15        -6.2309    3.2054   52.9612 C.3     1  ZINC000110375116    0.1000
     16 N16        -5.9719    2.6545   51.6237 N.am    1  ZINC000110375116   -1.0000
     17 S17        -5.0992    3.5169   50.5115 S.o2    1  ZINC000110375116    2.7000
     18 O18        -4.9031    2.6545   49.3992 O.2     1  ZINC000110375116   -0.9400
     19 O19        -5.7254    4.7882   50.4083 O.2     1  ZINC000110375116   -0.9500
     20 C20        -3.5055    3.8023   51.2067 C.ar    1  ZINC000110375116   -0.7400
     21 C21        -2.6527    2.7406   51.4664 C.ar    1  ZINC000110375116    0.0200
     22 C22        -1.4078    3.0126   52.0135 C.ar    1  ZINC000110375116   -0.1900
     23 C23        -1.0611    4.3235   52.2797 C.ar    1  ZINC000110375116    0.1500
     24 N24        -1.8982    5.3088   52.0196 N.ar    1  ZINC000110375116   -0.4900
     25 C25        -3.0875    5.0880   51.4948 C.ar    1  ZINC000110375116    0.2000
     26 C26        -6.5009    1.3243   51.2909 C.3     1  ZINC000110375116    0.1000
     27 C27        -8.0100    1.3211   51.5384 C.3     1  ZINC000110375116    0.1000
     28 H28        -8.3613   -1.3801   61.7367 H       1  ZINC000110375116    0.0700
     29 H29        -9.1227    0.1669   61.2946 H       1  ZINC000110375116    0.0600
     30 H30       -10.0763   -1.3357   61.2624 H       1  ZINC000110375116    0.0600
     31 H31        -7.7098   -0.6900   59.4458 H       1  ZINC000110375116    0.0800
     32 H32        -8.6634   -2.1927   59.4135 H       1  ZINC000110375116    0.0800
     33 H33       -11.6988   -0.8462   59.1659 H       1  ZINC000110375116    0.0800
     34 H34       -11.2652   -0.8890   57.4401 H       1  ZINC000110375116    0.0800
     35 H35       -11.6856   -3.1731   58.3092 H       1  ZINC000110375116    0.0700
     36 H36        -9.9870   -2.9809   57.8132 H       1  ZINC000110375116    0.0500
     37 H37       -10.4206   -2.9380   59.5390 H       1  ZINC000110375116    0.0600
     38 H38       -11.4332    1.1602   57.6679 H       1  ZINC000110375116    0.0900
     39 H39       -10.2771    2.4714   57.3327 H       1  ZINC000110375116    0.0900
     40 H40        -9.8912   -0.1537   55.9156 H       1  ZINC000110375116    0.0800
     41 H41       -11.2131    0.9063   55.3707 H       1  ZINC000110375116    0.0800
     42 H42        -9.6462    2.7595   55.0425 H       1  ZINC000110375116    0.1000
     43 H43        -8.3120    1.7882   55.7093 H       1  ZINC000110375116    0.1000
     44 H44        -8.2185    3.9553   52.5744 H       1  ZINC000110375116    0.0800
     45 H45        -7.9455    3.4262   54.2551 H       1  ZINC000110375116    0.1000
     46 H46        -5.8520    4.2258   53.0163 H       1  ZINC000110375116    0.1100
     47 H47        -5.7380    2.5886   53.7127 H       1  ZINC000110375116    0.0800
     48 H48        -2.9508    1.7259   51.2482 H       1  ZINC000110375116    0.1500
     49 H49        -0.7180    2.2101   52.2291 H       1  ZINC000110375116    0.1500
     50 H50        -0.0936    4.5437   52.7062 H       1  ZINC000110375116    0.1700
     51 H51        -3.7460    5.9204   51.2956 H       1  ZINC000110375116    0.1700
     52 H52        -6.3002    1.1026   50.2426 H       1  ZINC000110375116    0.1100
     53 H53        -6.0272    0.5736   51.9233 H       1  ZINC000110375116    0.0800
     54 H54        -8.3876    0.3000   51.4831 H       1  ZINC000110375116    0.1100
     55 H55        -8.5051    1.9380   50.7884 H       1  ZINC000110375116    0.0800
@<TRIPOS>BOND
     1     1     2    1
     2     1    28    1
     3     1    29    1
     4     1    30    1
     5     2     3    1
     6     2    31    1
     7     2    32    1
     8     3     4    1
     9     3     6   am
    10     4     5    1
    11     4    33    1
    12     4    34    1
    13     5    35    1
    14     5    36    1
    15     5    37    1
    16     6     7    2
    17     6     8    1
    18     8     9    1
    19     8    38    1
    20     8    39    1
    21     9    10    1
    22     9    40    1
    23     9    41    1
    24    10    11    1
    25    10    42    1
    26    10    43    1
    27    11    12    2
    28    11    13   am
    29    13    27    1
    30    13    14    1
    31    14    15    1
    32    14    44    1
    33    14    45    1
    34    15    16    1
    35    15    46    1
    36    15    47    1
    37    16    17   am
    38    16    26    1
    39    17    18    2
    40    17    19    2
    41    17    20    1
    42    20    25   ar
    43    20    21   ar
    44    21    22   ar
    45    21    48    1
    46    22    23   ar
    47    22    49    1
    48    23    24   ar
    49    23    50    1
    50    24    25   ar
    51    25    51    1
    52    26    27    1
    53    26    52    1
    54    26    53    1
    55    27    54    1
    56    27    55    1
@<TRIPOS>SUBSTRUCTURE
     1 ZINC000110375116        1 TEMP              0 ****  ****    0 ROOT


##########                                Name:    ZINC000058174787
##########                DOCK_Rotatable_Bonds:                   9
##########                         Heavy_Atoms:                  27
##########                    Molecular_Weight:             413.882
##########                DOCK_Rotatable_Bonds:                   9
##########                       Formal_Charge:           0.0200002
##########                     HBond_Acceptors:                  10
##########                        HBond_Donors:                   1
##########                         Heavy_Atoms:                  27
##########                          Grid_Score:          -34.598541
##########                     Grid_vdw_energy:          -34.595604
##########                      Grid_es_energy:           -0.002936
##########           Internal_energy_repulsive:            6.741488

@<TRIPOS>MOLECULE
ZINC000058174787
 47 48 1 0 0
SMALL
USER_CHARGES


@<TRIPOS>ATOM
      1 C1         -8.1243    1.6886   57.1531 C.3     1  ZINC000058174787   -0.0700
      2 C2         -8.8659    1.5496   58.4577 C.2     1  ZINC000058174787    0.2100
      3 N3         -8.9541    0.4598   59.1701 N.2     1  ZINC000058174787   -0.4200
      4 C4         -9.6891    0.7052   60.2649 C.2     1  ZINC000058174787   -0.5600
      5 S5        -10.0856   -0.4576   61.5279 S.o2    1  ZINC000058174787    2.7400
      6 O6         -9.0239   -0.4035   62.4708 O.2     1  ZINC000058174787   -0.9500
      7 O7        -11.4445   -0.2270   61.8733 O.2     1  ZINC000058174787   -0.9600
      8 N8        -10.0264   -1.9643   60.8431 N.am    1  ZINC000058174787   -1.1100
      9 C9        -10.9077   -2.2937   59.7202 C.3     1  ZINC000058174787    0.1300
     10 C10       -10.0669   -2.5274   58.4635 C.3     1  ZINC000058174787   -0.1200
     11 C11       -10.6873   -3.6273   57.6412 C.2     1  ZINC000058174787    0.4700
     12 O12       -10.5930   -4.7770   58.0007 O.2     1  ZINC000058174787   -0.5000
     13 O13       -11.3450   -3.3299   56.5095 O.3     1  ZINC000058174787   -0.3300
     14 C14       -12.7604   -3.0290   56.6292 C.3     1  ZINC000058174787    0.0400
     15 H15       -12.9433   -2.5103   57.5702 H       1  ZINC000058174787    0.1200
     16 C16       -13.5629   -4.3313   56.6004 C.3     1  ZINC000058174787   -0.1700
     17 C17       -13.1862   -2.1511   55.4807 C.2     1  ZINC000058174787    0.4000
     18 O18       -14.3650   -1.9803   55.2527 O.2     1  ZINC000058174787   -0.4200
     19 C19       -12.1721   -1.5013   54.6364 C.ar    1  ZINC000058174787   -0.1600
     20 C20       -11.5386   -0.3326   55.0724 C.ar    1  ZINC000058174787   -0.0600
     21 C21       -10.5891    0.2705   54.2762 C.ar    1  ZINC000058174787   -0.1200
     22 C22       -10.2613   -0.2778   53.0466 C.ar    1  ZINC000058174787    0.0000
     23 Cl23       -9.0636    0.4884   52.0507 Cl      1  ZINC000058174787   -0.0500
     24 C24       -10.8848   -1.4352   52.6083 C.ar    1  ZINC000058174787   -0.1200
     25 C25       -11.8324   -2.0521   53.3961 C.ar    1  ZINC000058174787   -0.0400
     26 C26       -10.0708    1.9962   60.2295 C.2     1  ZINC000058174787    0.0700
     27 N27        -9.5445    2.5337   59.0861 N.pl3   1  ZINC000058174787   -0.4500
     28 C28        -9.6961    3.9162   58.6255 C.3     1  ZINC000058174787    0.0600
     29 H29        -7.0935    1.9826   57.3507 H       1  ZINC000058174787    0.0900
     30 H30        -8.1353    0.7349   56.6255 H       1  ZINC000058174787    0.1000
     31 H31        -8.6077    2.4490   56.5396 H       1  ZINC000058174787    0.0800
     32 H32        -9.4081   -2.6287   61.1855 H       1  ZINC000058174787    0.4200
     33 H33       -11.4713   -3.1972   59.9535 H       1  ZINC000058174787    0.0900
     34 H34       -11.5989   -1.4689   59.5467 H       1  ZINC000058174787    0.0900
     35 H35       -10.0302   -1.6104   57.8752 H       1  ZINC000058174787    0.1200
     36 H36        -9.0557   -2.8151   58.7512 H       1  ZINC000058174787    0.1200
     37 H37       -13.3800   -4.8500   55.6594 H       1  ZINC000058174787    0.0800
     38 H38       -13.2549   -4.9663   57.4312 H       1  ZINC000058174787    0.0800
     39 H39       -14.6254   -4.1055   56.6903 H       1  ZINC000058174787    0.0800
     40 H40       -11.7934    0.0961   56.0303 H       1  ZINC000058174787    0.1400
     41 H41       -10.0994    1.1729   54.6114 H       1  ZINC000058174787    0.1400
     42 H42       -10.6244   -1.8570   51.6488 H       1  ZINC000058174787    0.1400
     43 H43       -12.3172   -2.9542   53.0534 H       1  ZINC000058174787    0.1500
     44 H44       -10.6730    2.5097   60.9645 H       1  ZINC000058174787    0.1900
     45 H45        -8.8850    4.5238   59.0268 H       1  ZINC000058174787    0.0900
     46 H46        -9.6646    3.9417   57.5363 H       1  ZINC000058174787    0.1000
     47 H47       -10.6514    4.3114   58.9708 H       1  ZINC000058174787    0.0900
@<TRIPOS>BOND
     1     1     2    1
     2     1    29    1
     3     1    30    1
     4     1    31    1
     5     2    27    1
     6     2     3    2
     7     3     4    1
     8     4     5    1
     9     4    26    2
    10     5     6    2
    11     5     7    2
    12     5     8   am
    13     8     9    1
    14     8    32    1
    15     9    10    1
    16     9    33    1
    17     9    34    1
    18    10    11    1
    19    10    35    1
    20    10    36    1
    21    11    12    2
    22    11    13    1
    23    13    14    1
    24    14    15    1
    25    14    16    1
    26    14    17    1
    27    16    37    1
    28    16    38    1
    29    16    39    1
    30    17    18    2
    31    17    19    1
    32    19    25   ar
    33    19    20   ar
    34    20    21   ar
    35    20    40    1
    36    21    22   ar
    37    21    41    1
    38    22    23    1
    39    22    24   ar
    40    24    25   ar
    41    24    42    1
    42    25    43    1
    43    26    27    1
    44    26    44    1
    45    27    28    1
    46    28    45    1
    47    28    46    1
    48    28    47    1
@<TRIPOS>SUBSTRUCTURE
     1 ZINC000058174787        1 TEMP              0 ****  ****    0 ROOT


##########                                Name:    ZINC000767361237
##########                DOCK_Rotatable_Bonds:                  10
##########                         Heavy_Atoms:                  30
##########                    Molecular_Weight:             409.439
##########                DOCK_Rotatable_Bonds:                  10
##########                       Formal_Charge:          -0.0300005
##########                     HBond_Acceptors:                   7
##########                        HBond_Donors:                   1
##########                         Heavy_Atoms:                  30
##########                          Grid_Score:          -34.578453
##########                     Grid_vdw_energy:          -34.847004
##########                      Grid_es_energy:            0.268552
##########           Internal_energy_repulsive:           11.762810

@<TRIPOS>MOLECULE
ZINC000767361237
 53 55 1 0 0
SMALL
USER_CHARGES


@<TRIPOS>ATOM
      1 C1        -17.2757    0.1984   51.7364 C.3     1  ZINC000767361237   -0.1200
      2 C2        -15.8285   -0.1875   51.9037 C.ar    1  ZINC000767361237   -0.0900
      3 C3        -15.0355   -0.3952   50.7907 C.ar    1  ZINC000767361237   -0.1200
      4 C4        -13.7081   -0.7492   50.9441 C.ar    1  ZINC000767361237   -0.1100
      5 C5        -13.1736   -0.8951   52.2105 C.ar    1  ZINC000767361237   -0.0800
      6 C6        -11.7266   -1.2814   52.3778 C.3     1  ZINC000767361237   -0.0800
      7 H7        -11.3386   -1.6553   51.4303 H       1  ZINC000767361237    0.0900
      8 C8        -11.6102   -2.3734   53.4431 C.3     1  ZINC000767361237   -0.1500
      9 C9        -10.9187   -0.0569   52.8122 C.3     1  ZINC000767361237    0.1300
     10 H10       -10.8405   -0.0402   53.8993 H       1  ZINC000767361237    0.1400
     11 O11       -11.5750    1.1304   52.3635 O.3     1  ZINC000767361237   -0.5200
     12 C12        -9.5388   -0.1263   52.2103 C.2     1  ZINC000767361237    0.4300
     13 O13        -8.9923   -1.1952   52.0738 O.2     1  ZINC000767361237   -0.5000
     14 O14        -8.9169    0.9994   51.8259 O.3     1  ZINC000767361237   -0.3300
     15 C15        -7.5851    0.8582   51.2651 C.3     1  ZINC000767361237    0.0100
     16 C16        -7.1104    2.1945   50.7551 C.2     1  ZINC000767361237    0.3700
     17 O17        -7.6754    2.7220   49.8273 O.2     1  ZINC000767361237   -0.4200
     18 C18        -5.9307    2.8724   51.4030 C.3     1  ZINC000767361237   -0.1800
     19 C19        -4.9199    3.2752   50.3273 C.3     1  ZINC000767361237    0.1200
     20 N20        -3.5670    3.2310   50.8875 N.am    1  ZINC000767361237   -0.5800
     21 C21        -2.6301    2.3290   50.5438 C.2     1  ZINC000767361237    0.5700
     22 O22        -2.7695    1.4361   49.7324 O.2     1  ZINC000767361237   -0.4600
     23 C23        -1.4021    2.6070   51.3182 C.ar    1  ZINC000767361237   -0.1400
     24 C24        -0.1468    2.0247   51.3835 C.ar    1  ZINC000767361237   -0.0400
     25 C25         0.8088    2.5459   52.2423 C.ar    1  ZINC000767361237   -0.0900
     26 C26         0.5173    3.6413   53.0328 C.ar    1  ZINC000767361237   -0.0900
     27 C27        -0.7347    4.2344   52.9780 C.ar    1  ZINC000767361237   -0.0400
     28 C28        -1.6995    3.7245   52.1246 C.ar    1  ZINC000767361237   -0.1400
     29 C29        -3.0963    4.0905   51.8091 C.2     1  ZINC000767361237    0.5700
     30 O30        -3.7161    5.0120   52.3009 O.2     1  ZINC000767361237   -0.4600
     31 C31       -13.9662   -0.6860   53.3236 C.ar    1  ZINC000767361237   -0.1100
     32 C32       -15.2927   -0.3283   53.1702 C.ar    1  ZINC000767361237   -0.1200
     33 H33       -17.3596    1.2844   51.6944 H       1  ZINC000767361237    0.0700
     34 H34       -17.6620   -0.2318   50.8125 H       1  ZINC000767361237    0.0700
     35 H35       -17.8521   -0.1781   52.5815 H       1  ZINC000767361237    0.0700
     36 H36       -15.4531   -0.2812   49.8012 H       1  ZINC000767361237    0.1200
     37 H37       -13.0887   -0.9121   50.0744 H       1  ZINC000767361237    0.1200
     38 H38       -10.5636   -2.6529   53.5640 H       1  ZINC000767361237    0.0800
     39 H39       -11.9983   -1.9995   54.3906 H       1  ZINC000767361237    0.0700
     40 H40       -12.1859   -3.2458   53.1336 H       1  ZINC000767361237    0.0600
     41 H41       -11.6103    1.2207   51.4013 H       1  ZINC000767361237    0.3900
     42 H42        -6.9024    0.5000   52.0357 H       1  ZINC000767361237    0.1100
     43 H43        -7.6113    0.1438   50.4423 H       1  ZINC000767361237    0.1100
     44 H44        -6.2695    3.7617   51.9344 H       1  ZINC000767361237    0.1100
     45 H45        -5.4587    2.1865   52.1065 H       1  ZINC000767361237    0.1100
     46 H46        -4.9882    2.5839   49.4875 H       1  ZINC000767361237    0.1100
     47 H47        -5.1382    4.2865   49.9842 H       1  ZINC000767361237    0.1100
     48 H48         0.0864    1.1683   50.7682 H       1  ZINC000767361237    0.1400
     49 H49         1.7876    2.0925   52.2942 H       1  ZINC000767361237    0.1400
     50 H50         1.2699    4.0379   53.6981 H       1  ZINC000767361237    0.1400
     51 H51        -0.9568    5.0905   53.5978 H       1  ZINC000767361237    0.1400
     52 H52       -13.5485   -0.7996   54.3130 H       1  ZINC000767361237    0.1200
     53 H53       -15.9120   -0.1650   54.0397 H       1  ZINC000767361237    0.1200
@<TRIPOS>BOND
     1     1     2    1
     2     1    33    1
     3     1    34    1
     4     1    35    1
     5     2    32   ar
     6     2     3   ar
     7     3     4   ar
     8     3    36    1
     9     4     5   ar
    10     4    37    1
    11     5     6    1
    12     5    31   ar
    13     6     7    1
    14     6     8    1
    15     6     9    1
    16     8    38    1
    17     8    39    1
    18     8    40    1
    19     9    10    1
    20     9    11    1
    21     9    12    1
    22    11    41    1
    23    12    13    2
    24    12    14    1
    25    14    15    1
    26    15    16    1
    27    15    42    1
    28    15    43    1
    29    16    17    2
    30    16    18    1
    31    18    19    1
    32    18    44    1
    33    18    45    1
    34    19    20    1
    35    19    46    1
    36    19    47    1
    37    20    29   am
    38    20    21   am
    39    21    22    2
    40    21    23    1
    41    23    28   ar
    42    23    24   ar
    43    24    25   ar
    44    24    48    1
    45    25    26   ar
    46    25    49    1
    47    26    27   ar
    48    26    50    1
    49    27    28   ar
    50    27    51    1
    51    28    29    1
    52    29    30    2
    53    31    32   ar
    54    31    52    1
    55    32    53    1
@<TRIPOS>SUBSTRUCTURE
     1 ZINC000767361237        1 TEMP              0 ****  ****    0 ROOT


##########                                Name:    ZINC000020646552
##########                DOCK_Rotatable_Bonds:                   5
##########                         Heavy_Atoms:                  29
##########                    Molecular_Weight:             412.556
##########                DOCK_Rotatable_Bonds:                   5
##########                       Formal_Charge:          -0.0200012
##########                     HBond_Acceptors:                   7
##########                        HBond_Donors:                   0
##########                         Heavy_Atoms:                  29
##########                          Grid_Score:          -34.542255
##########                     Grid_vdw_energy:          -33.576984
##########                      Grid_es_energy:           -0.965270
##########           Internal_energy_repulsive:           13.753319

@<TRIPOS>MOLECULE
ZINC000020646552
 57 60 1 0 0
SMALL
USER_CHARGES


@<TRIPOS>ATOM
      1 C1        -12.1767   -2.1820   59.6347 C.3     1  ZINC000020646552    0.0200
      2 N2        -11.2288   -1.0597   59.6414 N.3     1  ZINC000020646552   -0.5400
      3 C3        -11.7221    0.0510   58.8162 C.3     1  ZINC000020646552    0.0400
      4 C4        -10.8008    1.2627   58.9930 C.3     1  ZINC000020646552    0.1200
      5 N5         -9.4192    0.8443   58.7111 N.am    1  ZINC000020646552   -0.6100
      6 C6         -8.6506    1.5340   57.8449 C.2     1  ZINC000020646552    0.5300
      7 O7         -7.5140    1.1738   57.6231 O.2     1  ZINC000020646552   -0.5200
      8 C8         -9.2037    2.7526   57.1521 C.3     1  ZINC000020646552   -0.1500
      9 S9         -7.9512    3.4326   56.0362 S.3     1  ZINC000020646552    0.0500
     10 C10        -8.0772    2.2892   54.7016 C.ar    1  ZINC000020646552    0.1500
     11 N11        -9.0054    1.3385   54.7133 N.ar    1  ZINC000020646552   -0.5200
     12 C12        -9.1004    0.4778   53.7095 C.ar    1  ZINC000020646552    0.3800
     13 C13       -10.1495   -0.5699   53.7520 C.ar    1  ZINC000020646552   -0.0500
     14 C14       -10.3539   -1.4001   52.6515 C.ar    1  ZINC000020646552   -0.0700
     15 C15       -11.3312   -2.3736   52.6968 C.ar    1  ZINC000020646552   -0.1300
     16 C16       -12.1070   -2.5260   53.8319 C.ar    1  ZINC000020646552   -0.1000
     17 C17       -11.9088   -1.7045   54.9270 C.ar    1  ZINC000020646552   -0.1300
     18 C18       -10.9306   -0.7315   54.8950 C.ar    1  ZINC000020646552   -0.0700
     19 N19        -8.2818    0.5303   52.6689 N.ar    1  ZINC000020646552   -0.5200
     20 C20        -7.3316    1.4538   52.5934 C.ar    1  ZINC000020646552    0.2100
     21 C21        -7.2047    2.3720   53.6103 C.ar    1  ZINC000020646552   -0.2100
     22 C22        -6.1568    3.4501   53.5782 C.3     1  ZINC000020646552    0.1100
     23 O23        -5.1604    3.1394   52.6033 O.3     1  ZINC000020646552   -0.3600
     24 C24        -5.7071    2.8294   51.3166 C.3     1  ZINC000020646552    0.1100
     25 C25        -6.7134    3.9086   50.9124 C.3     1  ZINC000020646552   -0.1800
     26 C26        -4.5814    2.7635   50.2826 C.3     1  ZINC000020646552   -0.1400
     27 C27        -6.4167    1.4777   51.3974 C.3     1  ZINC000020646552   -0.0900
     28 C28        -8.8986   -0.3465   59.3997 C.3     1  ZINC000020646552    0.1100
     29 C29        -9.8947   -1.4948   59.2069 C.3     1  ZINC000020646552    0.0400
     30 H30       -11.8245   -2.9591   60.3128 H       1  ZINC000020646552    0.0700
     31 H31       -13.1563   -1.8321   59.9605 H       1  ZINC000020646552    0.0700
     32 H32       -12.2527   -2.5873   58.6257 H       1  ZINC000020646552    0.0300
     33 H33       -11.7303   -0.2499   57.7685 H       1  ZINC000020646552    0.0400
     34 H34       -12.7331    0.3142   59.1272 H       1  ZINC000020646552    0.0900
     35 H35       -11.0939    2.0499   58.2984 H       1  ZINC000020646552    0.1000
     36 H36       -10.8706    1.6294   60.0170 H       1  ZINC000020646552    0.0800
     37 H37       -10.0883    2.4748   56.5792 H       1  ZINC000020646552    0.1300
     38 H38        -9.4732    3.5025   57.8958 H       1  ZINC000020646552    0.1200
     39 H39        -9.7490   -1.2818   51.7647 H       1  ZINC000020646552    0.1400
     40 H40       -11.4907   -3.0173   51.8445 H       1  ZINC000020646552    0.1300
     41 H41       -12.8706   -3.2891   53.8630 H       1  ZINC000020646552    0.1300
     42 H42       -12.5177   -1.8277   55.8105 H       1  ZINC000020646552    0.1300
     43 H43       -10.7767   -0.0906   55.7505 H       1  ZINC000020646552    0.1300
     44 H44        -6.6250    4.4015   53.3258 H       1  ZINC000020646552    0.0800
     45 H45        -5.6895    3.5290   54.5598 H       1  ZINC000020646552    0.1100
     46 H46        -6.2117    4.8753   50.8692 H       1  ZINC000020646552    0.0700
     47 H47        -7.1280    3.6703   49.9329 H       1  ZINC000020646552    0.0700
     48 H48        -7.5175    3.9491   51.6472 H       1  ZINC000020646552    0.0600
     49 H49        -3.8693    1.9897   50.5694 H       1  ZINC000020646552    0.0700
     50 H50        -5.0000    2.5274   49.3043 H       1  ZINC000020646552    0.0800
     51 H51        -4.0728    3.7265   50.2373 H       1  ZINC000020646552    0.0700
     52 H52        -5.6759    0.6847   51.4989 H       1  ZINC000020646552    0.1000
     53 H53        -6.9965    1.3175   50.4884 H       1  ZINC000020646552    0.1000
     54 H54        -7.9340   -0.6231   58.9739 H       1  ZINC000020646552    0.0900
     55 H55        -8.7854   -0.1345   60.4628 H       1  ZINC000020646552    0.0800
     56 H56        -9.5804   -2.3527   59.8013 H       1  ZINC000020646552    0.0900
     57 H57        -9.9283   -1.7742   58.1538 H       1  ZINC000020646552    0.0400
@<TRIPOS>BOND
     1     1     2    1
     2     1    30    1
     3     1    31    1
     4     1    32    1
     5     2    29    1
     6     2     3    1
     7     3     4    1
     8     3    33    1
     9     3    34    1
    10     4     5    1
    11     4    35    1
    12     4    36    1
    13     5     6   am
    14     5    28    1
    15     6     7    2
    16     6     8    1
    17     8     9    1
    18     8    37    1
    19     8    38    1
    20     9    10    1
    21    10    21   ar
    22    10    11   ar
    23    11    12   ar
    24    12    13    1
    25    12    19   ar
    26    13    18   ar
    27    13    14   ar
    28    14    15   ar
    29    14    39    1
    30    15    16   ar
    31    15    40    1
    32    16    17   ar
    33    16    41    1
    34    17    18   ar
    35    17    42    1
    36    18    43    1
    37    19    20   ar
    38    20    27    1
    39    20    21   ar
    40    21    22    1
    41    22    23    1
    42    22    44    1
    43    22    45    1
    44    23    24    1
    45    24    25    1
    46    24    26    1
    47    24    27    1
    48    25    46    1
    49    25    47    1
    50    25    48    1
    51    26    49    1
    52    26    50    1
    53    26    51    1
    54    27    52    1
    55    27    53    1
    56    28    29    1
    57    28    54    1
    58    28    55    1
    59    29    56    1
    60    29    57    1
@<TRIPOS>SUBSTRUCTURE
     1 ZINC000020646552        1 TEMP              0 ****  ****    0 ROOT


##########                                Name:     oleObject27.pdb
##########                DOCK_Rotatable_Bonds:                   9
##########                         Heavy_Atoms:                  35
##########                    Molecular_Weight:             513.466
##########                DOCK_Rotatable_Bonds:                   9
##########                       Formal_Charge:         0.000199873
##########                     HBond_Acceptors:                   8
##########                        HBond_Donors:                   1
##########                         Heavy_Atoms:                  35
##########                          Grid_Score:          -34.529629
##########                     Grid_vdw_energy:          -33.980667
##########                      Grid_es_energy:           -0.548962
##########           Internal_energy_repulsive:           21.098570

@<TRIPOS>MOLECULE
oleObject27.pdb
 65 68 1 0 0
SMALL
NO_CHARGES


@<TRIPOS>ATOM
      1 C         -10.9883   -0.4672   57.0086 C.ar    1  UNL        -0.0620
      2 C         -11.7010   -1.3898   56.2292 C.ar    1  UNL        -0.0590
      3 C         -11.6609   -1.3264   54.8227 C.ar    1  UNL        -0.0456
      4 C         -10.8864   -0.3241   54.1872 C.ar    1  UNL        -0.0187
      5 C         -10.1831    0.6046   54.9856 C.ar    1  UNL        -0.0565
      6 C         -10.2312    0.5332   56.3856 C.ar    1  UNL        -0.0619
      7 C         -10.8174   -0.2253   52.6550 C.3     1  UNL         0.0921
      8 C         -12.1637    0.1467   52.0259 C.ar    1  UNL         0.0681
      9 C         -12.8525    1.3378   52.3666 C.ar    1  UNL        -0.0272
     10 C         -14.0908    1.5935   51.7479 C.ar    1  UNL        -0.0559
     11 C         -14.6016    0.6638   50.8305 C.ar    1  UNL        -0.0435
     12 C         -13.8595   -0.4968   50.5654 C.ar    1  UNL         0.0272
     13 N         -12.6742   -0.7504   51.1512 N.ar    1  UNL        -0.2587
     14 C         -12.3050    2.3340   53.3823 C.3     1  UNL        -0.0379
     15 N          -9.7658    0.6892   52.1868 N.am    1  UNL        -0.2865
     16 C          -8.4683    0.2985   51.9088 C.2     1  UNL         0.3014
     17 O          -8.1021   -0.8574   52.0415 O.2     1  UNL        -0.2541
     18 N          -7.6142    1.3140   51.4747 N.am    1  UNL        -0.2833
     19 C          -8.0681    2.7232   51.3209 C.3     1  UNL         0.0284
     20 C          -7.1209    3.6287   50.4966 C.3     1  UNL         0.0142
     21 N          -5.7088    3.4717   50.8862 N.4     1  UNL        -0.2979
     22 C          -5.3031    2.0656   50.6926 C.3     1  UNL         0.0142
     23 C          -6.1490    1.0913   51.5443 C.3     1  UNL         0.0284
     24 C          -5.4047    4.0540   52.2155 C.3     1  UNL         0.0223
     25 C          -4.1100    4.8913   52.2315 C.3     1  UNL         0.0661
     26 O          -3.0158    3.9959   52.4958 O.3     1  UNL        -0.3432
     27 C          -2.4929    3.7782   53.7560 C.ar    1  UNL         0.0937
     28 C          -3.2584    3.2080   54.7957 C.ar    1  UNL        -0.0288
     29 C          -2.6877    3.0034   56.0630 C.ar    1  UNL        -0.0408
     30 C          -1.3524    3.3659   56.2999 C.ar    1  UNL         0.0422
     31 C          -0.5845    3.9332   55.2710 C.ar    1  UNL        -0.0221
     32 C          -1.1523    4.1388   54.0026 C.ar    1  UNL         0.0723
     33 CL         -0.1659    4.8500   52.7389 Cl      1  UNL        -0.0814
     34 CL         -0.6442    3.1097   57.8803 Cl      1  UNL        -0.0843
     35 C         -12.4677   -2.3441   54.0231 C.3     1  UNL        -0.0394
     36 H         -11.0279   -0.5246   58.0926 H       1  UNL         0.0623
     37 H         -12.2902   -2.1570   56.7235 H       1  UNL         0.0626
     38 H          -9.5986    1.3944   54.5231 H       1  UNL         0.0627
     39 H          -9.6836    1.2542   56.9857 H       1  UNL         0.0623
     40 H         -10.5344   -1.2161   52.2877 H       1  UNL         0.0625
     41 H         -14.6512    2.4955   51.9769 H       1  UNL         0.0627
     42 H         -15.5550    0.8352   50.3395 H       1  UNL         0.0639
     43 H         -14.2235   -1.2461   49.8635 H       1  UNL         0.0840
     44 H         -12.0605    1.8383   54.3303 H       1  UNL         0.0280
     45 H         -13.0319    3.1248   53.6060 H       1  UNL         0.0280
     46 H         -11.3956    2.8196   53.0075 H       1  UNL         0.0280
     47 H          -9.9947    1.6696   52.1029 H       1  UNL         0.1521
     48 H          -8.1856    3.1519   52.3244 H       1  UNL         0.0484
     49 H          -9.0499    2.7465   50.8322 H       1  UNL         0.0484
     50 H          -7.4325    4.6759   50.6013 H       1  UNL         0.0447
     51 H          -7.2290    3.3631   49.4369 H       1  UNL         0.0447
     52 H          -4.2398    1.9246   50.9188 H       1  UNL         0.0447
     53 H          -5.4398    1.8004   49.6361 H       1  UNL         0.0447
     54 H          -5.8433    1.1778   52.5946 H       1  UNL         0.0484
     55 H          -5.9216    0.0678   51.2197 H       1  UNL         0.0484
     56 H          -5.3235    3.2638   52.9726 H       1  UNL         0.0455
     57 H          -6.2315    4.7106   52.5157 H       1  UNL         0.0455
     58 H          -4.1769    5.6544   53.0174 H       1  UNL         0.0586
     59 H          -3.9657    5.3830   51.2618 H       1  UNL         0.0586
     60 H          -4.2921    2.9197   54.6348 H       1  UNL         0.0652
     61 H          -3.2811    2.5642   56.8600 H       1  UNL         0.0639
     62 H           0.4488    4.2133   55.4553 H       1  UNL         0.0655
     63 H         -13.0833   -2.9766   54.6748 H       1  UNL         0.0280
     64 H         -11.8081   -3.0086   53.4512 H       1  UNL         0.0280
     65 H         -13.1466   -1.8464   53.3198 H       1  UNL         0.0280
@<TRIPOS>BOND
     1     1     2   ar
     2     1     6   ar
     3     1    36    1
     4     2     3   ar
     5     2    37    1
     6     3     4   ar
     7     3    35    1
     8     4     5   ar
     9     4     7    1
    10     5     6   ar
    11     5    38    1
    12     6    39    1
    13     7     8    1
    14     7    15    1
    15     7    40    1
    16     8     9   ar
    17     8    13   ar
    18     9    10   ar
    19     9    14    1
    20    10    11   ar
    21    10    41    1
    22    11    12   ar
    23    11    42    1
    24    12    13   ar
    25    12    43    1
    26    14    44    1
    27    14    45    1
    28    14    46    1
    29    15    16   am
    30    15    47    1
    31    16    17    2
    32    16    18   am
    33    18    19    1
    34    18    23    1
    35    19    20    1
    36    19    48    1
    37    19    49    1
    38    20    21    1
    39    20    50    1
    40    20    51    1
    41    21    22    1
    42    21    24    1
    43    22    23    1
    44    22    52    1
    45    22    53    1
    46    23    54    1
    47    23    55    1
    48    24    25    1
    49    24    56    1
    50    24    57    1
    51    25    26    1
    52    25    58    1
    53    25    59    1
    54    26    27    1
    55    27    28   ar
    56    27    32   ar
    57    28    29   ar
    58    28    60    1
    59    29    30   ar
    60    29    61    1
    61    30    31   ar
    62    30    34    1
    63    31    32   ar
    64    31    62    1
    65    32    33    1
    66    35    63    1
    67    35    64    1
    68    35    65    1
@<TRIPOS>SUBSTRUCTURE
     1 UNL         1 TEMP              0 ****  ****    0 ROOT


##########                                Name:    ZINC001109082135
##########                DOCK_Rotatable_Bonds:                   9
##########                         Heavy_Atoms:                  27
##########                    Molecular_Weight:             373.455
##########                DOCK_Rotatable_Bonds:                   9
##########                       Formal_Charge:          -0.0100003
##########                     HBond_Acceptors:                   8
##########                        HBond_Donors:                   3
##########                         Heavy_Atoms:                  27
##########                          Grid_Score:          -34.465042
##########                     Grid_vdw_energy:          -32.862804
##########                      Grid_es_energy:           -1.602236
##########           Internal_energy_repulsive:           17.995998

@<TRIPOS>MOLECULE
ZINC001109082135
 54 57 1 0 0
SMALL
USER_CHARGES


@<TRIPOS>ATOM
      1 C1        -14.4164   -0.9038   47.4999 C.3     1  ZINC001109082135   -0.1400
      2 C2        -14.6674    0.5845   47.2493 C.3     1  ZINC001109082135   -0.1400
      3 C3        -14.6200    1.3293   48.5586 C.2     1  ZINC001109082135    0.5100
      4 O4        -15.6370    1.4976   49.1976 O.2     1  ZINC001109082135   -0.5400
      5 N5        -13.4476    1.8084   49.0193 N.am    1  ZINC001109082135   -0.7200
      6 C6        -13.4017    2.5340   50.2912 C.3     1  ZINC001109082135    0.1000
      7 C7        -13.4227    1.5497   51.4320 C.2     1  ZINC001109082135    0.5100
      8 O8        -14.4598    1.0023   51.7418 O.2     1  ZINC001109082135   -0.5300
      9 N9        -12.2890    1.2776   52.1082 N.am    1  ZINC001109082135   -0.7100
     10 C10       -12.3091    0.3193   53.2163 C.3     1  ZINC001109082135    0.1100
     11 H11       -13.1085    0.5612   53.9167 H       1  ZINC001109082135    0.0900
     12 C12       -12.4694   -1.1258   52.6841 C.3     1  ZINC001109082135   -0.1600
     13 C13       -11.1655   -1.8356   53.1587 C.3     1  ZINC001109082135    0.0600
     14 H14       -11.2145   -2.9232   53.2122 H       1  ZINC001109082135    0.1300
     15 C15       -10.0375   -1.2564   52.2526 C.3     1  ZINC001109082135   -0.1200
     16 C16        -9.8682    0.1938   52.7678 C.3     1  ZINC001109082135   -0.1100
     17 C17       -10.9312    0.2929   53.9438 C.3     1  ZINC001109082135    0.0400
     18 H18       -10.7521    1.0812   54.6750 H       1  ZINC001109082135    0.1200
     19 N19       -10.9080   -1.1240   54.4613 N.3     1  ZINC001109082135   -0.4800
     20 C20       -11.9938   -1.3506   55.4243 C.3     1  ZINC001109082135    0.0800
     21 C21       -11.4325   -1.9726   56.6770 C.2     1  ZINC001109082135    0.2000
     22 C22       -11.1193   -3.2979   56.6991 C.2     1  ZINC001109082135   -0.2900
     23 C23       -10.5956   -3.8479   57.8873 C.2     1  ZINC001109082135    0.5200
     24 O24       -10.3014   -5.0301   57.9497 O.2     1  ZINC001109082135   -0.5400
     25 N25       -10.4260   -3.0380   58.9542 N.am    1  ZINC001109082135   -0.6300
     26 C26       -10.7558   -1.7343   58.8674 C.2     1  ZINC001109082135    0.4300
     27 C27       -10.5605   -0.8438   60.0674 C.3     1  ZINC001109082135   -0.1400
     28 C28        -9.3002   -1.0579   60.9082 C.3     1  ZINC001109082135   -0.1400
     29 C29        -9.4216    0.1763   60.0121 C.3     1  ZINC001109082135   -0.1400
     30 N30       -11.2363   -1.2239   57.7651 N.2     1  ZINC001109082135   -0.5300
     31 H31       -15.1840   -1.2943   48.1681 H       1  ZINC001109082135    0.0600
     32 H32       -14.4507   -1.4425   46.5530 H       1  ZINC001109082135    0.0600
     33 H33       -13.4357   -1.0349   47.9572 H       1  ZINC001109082135    0.0600
     34 H34       -13.8998    0.9750   46.5811 H       1  ZINC001109082135    0.1000
     35 H35       -15.6482    0.7156   46.7921 H       1  ZINC001109082135    0.1000
     36 H36       -12.6341    1.6727   48.5087 H       1  ZINC001109082135    0.4100
     37 H37       -12.4878    3.1261   50.3389 H       1  ZINC001109082135    0.1000
     38 H38       -14.2663    3.1937   50.3645 H       1  ZINC001109082135    0.1000
     39 H39       -11.4599    1.7162   51.8613 H       1  ZINC001109082135    0.4000
     40 H40       -13.3466   -1.6013   53.1230 H       1  ZINC001109082135    0.0800
     41 H41       -12.5340   -1.1292   51.5960 H       1  ZINC001109082135    0.0800
     42 H42        -9.1136   -1.8201   52.3826 H       1  ZINC001109082135    0.0700
     43 H43       -10.3458   -1.2588   51.2071 H       1  ZINC001109082135    0.0700
     44 H44        -8.8604    0.3491   53.1530 H       1  ZINC001109082135    0.0700
     45 H45       -10.0927    0.9104   51.9776 H       1  ZINC001109082135    0.0700
     46 H46       -12.4652   -0.3992   55.6709 H       1  ZINC001109082135    0.1000
     47 H47       -12.7340   -2.0202   54.9865 H       1  ZINC001109082135    0.0700
     48 H48       -11.2693   -3.9146   55.8253 H       1  ZINC001109082135    0.1600
     49 H49       -10.0676   -3.3942   59.7823 H       1  ZINC001109082135    0.4200
     50 H50       -11.4715   -0.5533   60.5905 H       1  ZINC001109082135    0.1300
     51 H51        -9.3820   -0.9081   61.9848 H       1  ZINC001109082135    0.1100
     52 H52        -8.6125   -1.8427   60.5934 H       1  ZINC001109082135    0.1100
     53 H53        -8.8137    0.2035   59.1077 H       1  ZINC001109082135    0.1100
     54 H54        -9.5832    1.1379   60.4991 H       1  ZINC001109082135    0.1100
@<TRIPOS>BOND
     1     1     2    1
     2     1    31    1
     3     1    32    1
     4     1    33    1
     5     2     3    1
     6     2    34    1
     7     2    35    1
     8     3     4    2
     9     3     5   am
    10     5     6    1
    11     5    36    1
    12     6     7    1
    13     6    37    1
    14     6    38    1
    15     7     8    2
    16     7     9   am
    17     9    10    1
    18     9    39    1
    19    10    11    1
    20    10    17    1
    21    10    12    1
    22    12    13    1
    23    12    40    1
    24    12    41    1
    25    13    14    1
    26    13    19    1
    27    13    15    1
    28    15    16    1
    29    15    42    1
    30    15    43    1
    31    16    17    1
    32    16    44    1
    33    16    45    1
    34    17    18    1
    35    17    19    1
    36    19    20    1
    37    20    21    1
    38    20    46    1
    39    20    47    1
    40    21    30    1
    41    21    22    2
    42    22    23    1
    43    22    48    1
    44    23    24    2
    45    23    25   am
    46    25    26    1
    47    25    49    1
    48    26    27    1
    49    26    30    2
    50    27    29    1
    51    27    28    1
    52    27    50    1
    53    28    29    1
    54    28    51    1
    55    28    52    1
    56    29    53    1
    57    29    54    1
@<TRIPOS>SUBSTRUCTURE
     1 ZINC001109082135        1 TEMP              0 ****  ****    0 ROOT


##########                                Name:    ZINC001340305486
##########                DOCK_Rotatable_Bonds:                   8
##########                         Heavy_Atoms:                  27
##########                    Molecular_Weight:             378.431
##########                DOCK_Rotatable_Bonds:                   8
##########                       Formal_Charge:          0.00999955
##########                     HBond_Acceptors:                  10
##########                        HBond_Donors:                   2
##########                         Heavy_Atoms:                  27
##########                          Grid_Score:          -34.464146
##########                     Grid_vdw_energy:          -32.320988
##########                      Grid_es_energy:           -2.143157
##########           Internal_energy_repulsive:           11.937209

@<TRIPOS>MOLECULE
ZINC001340305486
 53 55 1 0 0
SMALL
USER_CHARGES


@<TRIPOS>ATOM
      1 C1         -5.5749    2.0717   51.6076 C.3     1  ZINC001340305486    0.0900
      2 N2         -6.5115    1.3661   52.4858 N.am    1  ZINC001340305486   -0.7300
      3 C3         -7.8395    1.4821   52.2869 C.2     1  ZINC001340305486    0.5200
      4 O4         -8.2591    2.1718   51.3818 O.2     1  ZINC001340305486   -0.5100
      5 C5         -8.8029    0.7548   53.1891 C.3     1  ZINC001340305486    0.0600
      6 H6         -8.3205   -0.1340   53.5956 H       1  ZINC001340305486    0.0900
      7 C7        -10.0433    0.3432   52.3879 C.3     1  ZINC001340305486    0.0900
      8 N8        -11.0432   -0.1942   53.3243 N.am    1  ZINC001340305486   -0.5800
      9 C9        -11.6354   -1.3838   53.0995 C.2     1  ZINC001340305486    0.5100
     10 O10       -11.3458   -2.0290   52.1133 O.2     1  ZINC001340305486   -0.5200
     11 C11       -12.6486   -1.9085   54.0647 C.2     1  ZINC001340305486    0.5200
     12 O12       -13.7667   -1.4371   54.0867 O.2     1  ZINC001340305486   -0.5000
     13 N13       -12.3206   -2.9050   54.9107 N.am    1  ZINC001340305486   -0.6900
     14 C14       -13.3134   -3.4182   55.8580 C.3     1  ZINC001340305486    0.1200
     15 C15       -13.2553   -2.6009   57.1502 C.3     1  ZINC001340305486   -0.0400
     16 C16       -11.9008   -2.7677   57.7894 C.2     1  ZINC001340305486    0.1700
     17 N17       -11.1274   -3.8178   57.7064 N.2     1  ZINC001340305486   -0.2800
     18 N18       -10.0431   -3.6117   58.3692 N.2     1  ZINC001340305486   -0.2900
     19 C19       -10.0755   -2.4221   58.8986 C.2     1  ZINC001340305486    0.1900
     20 C20        -9.0037   -1.7658   59.7296 C.3     1  ZINC001340305486   -0.0400
     21 C21        -9.6470   -1.1313   60.9662 C.3     1  ZINC001340305486   -0.1200
     22 C22       -10.0892    0.2919   60.6391 C.3     1  ZINC001340305486   -0.1300
     23 C23       -10.5393    0.3910   59.1823 C.3     1  ZINC001340305486   -0.1400
     24 C24       -11.7373   -0.5333   58.9474 C.3     1  ZINC001340305486    0.1000
     25 N25       -11.2554   -1.8571   58.5514 N.pl3   1  ZINC001340305486   -0.4600
     26 C26       -11.3780    0.6060   54.5130 C.3     1  ZINC001340305486    0.0200
     27 C27       -10.0725    1.0049   55.2106 C.3     1  ZINC001340305486    0.0500
     28 O28        -9.1973    1.6161   54.2597 O.3     1  ZINC001340305486   -0.3500
     29 H29        -5.7175    1.7367   50.5803 H       1  ZINC001340305486    0.0600
     30 H30        -5.7576    3.1446   51.6687 H       1  ZINC001340305486    0.0600
     31 H31        -4.5527    1.8588   51.9206 H       1  ZINC001340305486    0.0800
     32 H32        -6.1759    0.8155   53.2104 H       1  ZINC001340305486    0.4000
     33 H33       -10.4525    1.2122   51.8726 H       1  ZINC001340305486    0.0900
     34 H34        -9.7730   -0.4222   51.6604 H       1  ZINC001340305486    0.1100
     35 H35       -11.4274   -3.2826   54.8923 H       1  ZINC001340305486    0.4200
     36 H36       -14.3087   -3.3367   55.4210 H       1  ZINC001340305486    0.0900
     37 H37       -13.0982   -4.4635   56.0793 H       1  ZINC001340305486    0.0800
     38 H38       -13.4224   -1.5482   56.9221 H       1  ZINC001340305486    0.0900
     39 H39       -14.0265   -2.9509   57.8364 H       1  ZINC001340305486    0.1100
     40 H40        -8.2748   -2.5139   60.0412 H       1  ZINC001340305486    0.1000
     41 H41        -8.5070   -0.9945   59.1407 H       1  ZINC001340305486    0.0900
     42 H42       -10.5132   -1.7203   61.2674 H       1  ZINC001340305486    0.0600
     43 H43        -8.9230   -1.1082   61.7808 H       1  ZINC001340305486    0.0800
     44 H44       -10.9171    0.5702   61.2912 H       1  ZINC001340305486    0.0700
     45 H45        -9.2559    0.9747   60.8053 H       1  ZINC001340305486    0.0800
     46 H46       -10.8257    1.4191   58.9604 H       1  ZINC001340305486    0.0900
     47 H47        -9.7191    0.0949   58.5284 H       1  ZINC001340305486    0.0800
     48 H48       -12.3198   -0.6139   59.8650 H       1  ZINC001340305486    0.0900
     49 H49       -12.3626   -0.1237   58.1540 H       1  ZINC001340305486    0.1000
     50 H50       -11.9216    1.5014   54.2115 H       1  ZINC001340305486    0.0800
     51 H51       -11.9916    0.0147   55.1925 H       1  ZINC001340305486    0.1700
     52 H52       -10.2892    1.7108   56.0124 H       1  ZINC001340305486    0.1200
     53 H53        -9.5953    0.1169   55.6253 H       1  ZINC001340305486    0.0600
@<TRIPOS>BOND
     1     1     2    1
     2     1    29    1
     3     1    30    1
     4     1    31    1
     5     2     3   am
     6     2    32    1
     7     3     4    2
     8     3     5    1
     9     5     6    1
    10     5    28    1
    11     5     7    1
    12     7     8    1
    13     7    33    1
    14     7    34    1
    15     8     9   am
    16     8    26    1
    17     9    10    2
    18     9    11    1
    19    11    12    2
    20    11    13   am
    21    13    14    1
    22    13    35    1
    23    14    15    1
    24    14    36    1
    25    14    37    1
    26    15    16    1
    27    15    38    1
    28    15    39    1
    29    16    25    1
    30    16    17    2
    31    17    18    1
    32    18    19    2
    33    19    25    1
    34    19    20    1
    35    20    21    1
    36    20    40    1
    37    20    41    1
    38    21    22    1
    39    21    42    1
    40    21    43    1
    41    22    23    1
    42    22    44    1
    43    22    45    1
    44    23    24    1
    45    23    46    1
    46    23    47    1
    47    24    25    1
    48    24    48    1
    49    24    49    1
    50    26    27    1
    51    26    50    1
    52    26    51    1
    53    27    28    1
    54    27    52    1
    55    27    53    1
@<TRIPOS>SUBSTRUCTURE
     1 ZINC001340305486        1 TEMP              0 ****  ****    0 ROOT


##########                                Name:    ZINC000494558165
##########                DOCK_Rotatable_Bonds:                  11
##########                         Heavy_Atoms:                  28
##########                    Molecular_Weight:             409.506
##########                DOCK_Rotatable_Bonds:                  11
##########                       Formal_Charge:        -6.55651e-07
##########                     HBond_Acceptors:                   9
##########                        HBond_Donors:                   3
##########                         Heavy_Atoms:                  28
##########                          Grid_Score:          -34.463791
##########                     Grid_vdw_energy:          -30.309731
##########                      Grid_es_energy:           -4.154060
##########           Internal_energy_repulsive:           31.146109

@<TRIPOS>MOLECULE
ZINC000494558165
 55 57 1 0 0
SMALL
USER_CHARGES


@<TRIPOS>ATOM
      1 O1         -5.1378    4.8374   53.9120 O.2     1  ZINC000494558165   -0.4400
      2 C2         -5.2992    3.6359   53.9186 C.2     1  ZINC000494558165    0.5100
      3 C3         -6.2692    3.0006   52.9560 C.3     1  ZINC000494558165    0.0300
      4 N4         -5.7625    3.1433   51.5846 N.3     1  ZINC000494558165   -0.5000
      5 C5         -4.4701    2.4629   51.4274 C.3     1  ZINC000494558165    0.0500
      6 C6         -3.4719    3.4119   50.7611 C.3     1  ZINC000494558165   -0.1100
      7 C7         -2.1922    2.6469   50.4178 C.3     1  ZINC000494558165    0.0800
      8 O8         -2.5073    1.5570   49.5490 O.3     1  ZINC000494558165   -0.5700
      9 C9         -6.7410    2.6473   50.6076 C.3     1  ZINC000494558165    0.1200
     10 H10        -6.2312    2.1547   49.7795 H       1  ZINC000494558165    0.1000
     11 C11        -7.6124    3.8091   50.0851 C.3     1  ZINC000494558165   -0.1200
     12 C12        -8.8208    3.7745   51.0447 C.3     1  ZINC000494558165   -0.0900
     13 C13        -8.9052    2.3412   51.5239 C.ar    1  ZINC000494558165   -0.0900
     14 C14        -9.9448    1.6580   52.1318 C.ar    1  ZINC000494558165   -0.1100
     15 C15        -9.7912    0.3320   52.4877 C.ar    1  ZINC000494558165   -0.1100
     16 C16        -8.5964   -0.3156   52.2364 C.ar    1  ZINC000494558165   -0.1200
     17 C17        -7.5579    0.3644   51.6300 C.ar    1  ZINC000494558165   -0.1000
     18 C18        -7.7083    1.6913   51.2721 C.ar    1  ZINC000494558165   -0.1300
     19 N19        -4.6069    2.8677   54.7829 N.am    1  ZINC000494558165   -0.6900
     20 C20        -3.7393    3.4359   55.6438 C.2     1  ZINC000494558165    0.7000
     21 O21        -3.5823    4.6411   55.6416 O.2     1  ZINC000494558165   -0.5200
     22 N22        -3.0458    2.6676   56.5070 N.am    1  ZINC000494558165   -0.7300
     23 C23        -2.1041    3.2853   57.4439 C.3     1  ZINC000494558165    0.1700
     24 H24        -2.5027    4.2396   57.7883 H       1  ZINC000494558165    0.1200
     25 C25        -1.8844    2.3519   58.6474 C.3     1  ZINC000494558165   -0.1400
     26 C26        -0.6526    2.8989   59.4140 C.3     1  ZINC000494558165   -0.5800
     27 S27         0.5060    3.3208   58.0579 S.o2    1  ZINC000494558165    2.4000
     28 O28         1.1056    4.5809   58.3257 O.2     1  ZINC000494558165   -0.9300
     29 O29         1.3236    2.1949   57.7696 O.2     1  ZINC000494558165   -0.9300
     30 C30        -0.7495    3.5117   56.7436 C.3     1  ZINC000494558165   -0.6200
     31 H31        -6.3780    1.9427   53.1950 H       1  ZINC000494558165    0.0700
     32 H32        -7.2381    3.4932   53.0385 H       1  ZINC000494558165    0.1200
     33 H33        -4.0932    2.1682   52.4067 H       1  ZINC000494558165    0.0900
     34 H34        -4.5993    1.5767   50.8060 H       1  ZINC000494558165    0.0400
     35 H35        -3.9091    3.8168   49.8484 H       1  ZINC000494558165    0.0700
     36 H36        -3.2353    4.2280   51.4437 H       1  ZINC000494558165    0.0800
     37 H37        -1.4906    3.3168   49.9206 H       1  ZINC000494558165    0.0500
     38 H38        -1.7416    2.2632   51.3332 H       1  ZINC000494558165    0.0400
     39 H39        -2.8959    1.8261   48.7054 H       1  ZINC000494558165    0.3800
     40 H40        -7.0816    4.7577   50.1648 H       1  ZINC000494558165    0.0900
     41 H41        -7.9278    3.6253   49.0581 H       1  ZINC000494558165    0.0800
     42 H42        -8.6541    4.4457   51.8871 H       1  ZINC000494558165    0.0800
     43 H43        -9.7325    4.0505   50.5149 H       1  ZINC000494558165    0.0800
     44 H44       -10.8787    2.1635   52.3287 H       1  ZINC000494558165    0.1200
     45 H45       -10.6043   -0.1981   52.9613 H       1  ZINC000494558165    0.1300
     46 H46        -8.4745   -1.3521   52.5144 H       1  ZINC000494558165    0.1200
     47 H47        -6.6244   -0.1423   51.4344 H       1  ZINC000494558165    0.1200
     48 H48        -4.7330    1.9060   54.7855 H       1  ZINC000494558165    0.4100
     49 H49        -3.1703    1.7056   56.5079 H       1  ZINC000494558165    0.4000
     50 H50        -2.7619    2.3636   59.2940 H       1  ZINC000494558165    0.1100
     51 H51        -1.6884    1.3369   58.3017 H       1  ZINC000494558165    0.0900
     52 H52        -0.9171    3.7875   59.9873 H       1  ZINC000494558165    0.1400
     53 H53        -0.2277    2.1317   60.0612 H       1  ZINC000494558165    0.1400
     54 H54        -0.5963    2.7668   55.9628 H       1  ZINC000494558165    0.1500
     55 H55        -0.7074    4.5164   56.3231 H       1  ZINC000494558165    0.1500
@<TRIPOS>BOND
     1     1     2    2
     2     2     3    1
     3     2    19   am
     4     3     4    1
     5     3    31    1
     6     3    32    1
     7     4     5    1
     8     4     9    1
     9     5     6    1
    10     5    33    1
    11     5    34    1
    12     6     7    1
    13     6    35    1
    14     6    36    1
    15     7     8    1
    16     7    37    1
    17     7    38    1
    18     8    39    1
    19     9    10    1
    20     9    18    1
    21     9    11    1
    22    11    12    1
    23    11    40    1
    24    11    41    1
    25    12    13    1
    26    12    42    1
    27    12    43    1
    28    13    18   ar
    29    13    14   ar
    30    14    15   ar
    31    14    44    1
    32    15    16   ar
    33    15    45    1
    34    16    17   ar
    35    16    46    1
    36    17    18   ar
    37    17    47    1
    38    19    20   am
    39    19    48    1
    40    20    21    2
    41    20    22   am
    42    22    23    1
    43    22    49    1
    44    23    24    1
    45    23    30    1
    46    23    25    1
    47    25    26    1
    48    25    50    1
    49    25    51    1
    50    26    27    1
    51    26    52    1
    52    26    53    1
    53    27    28    2
    54    27    29    2
    55    27    30    1
    56    30    54    1
    57    30    55    1
@<TRIPOS>SUBSTRUCTURE
     1 ZINC000494558165        1 TEMP              0 ****  ****    0 ROOT


##########                                Name:    ZINC000012087388
##########                DOCK_Rotatable_Bonds:                   5
##########                         Heavy_Atoms:                  29
##########                    Molecular_Weight:              418.52
##########                DOCK_Rotatable_Bonds:                   5
##########                       Formal_Charge:          -0.0499999
##########                     HBond_Acceptors:                  10
##########                        HBond_Donors:                   1
##########                         Heavy_Atoms:                  29
##########                          Grid_Score:          -34.441212
##########                     Grid_vdw_energy:          -33.853294
##########                      Grid_es_energy:           -0.587916
##########           Internal_energy_repulsive:           24.525408

@<TRIPOS>MOLECULE
ZINC000012087388
 55 58 1 0 0
SMALL
USER_CHARGES


@<TRIPOS>ATOM
      1 C1        -11.6837   -2.3863   53.1746 C.3     1  <0>        -0.6600
      2 S2        -10.7328   -0.9531   52.5980 S.o2    1  <0>         2.5100
      3 O3         -9.4539   -1.3587   52.1303 O.2     1  <0>        -0.9400
      4 O4        -11.5543   -0.0873   51.8268 O.2     1  <0>        -0.9300
      5 C5        -10.3891   -0.0356   54.0624 C.ar    1  <0>        -0.8400
      6 C6        -10.9047   -0.4347   55.2853 C.ar    1  <0>         0.3000
      7 N7        -10.6271    0.2763   56.3657 N.ar    1  <0>        -0.5800
      8 C8         -9.8661    1.3579   56.2876 C.ar    1  <0>         0.6000
      9 N9         -9.5957    2.0783   57.4380 N.pl3   1  <0>        -0.5700
     10 C10        -9.1447    3.4744   57.3585 C.3     1  <0>         0.1200
     11 C11       -10.0642    4.3399   58.2258 C.3     1  <0>        -0.1400
     12 C12       -10.1024    3.7717   59.6462 C.3     1  <0>        -0.1200
     13 C13       -10.6669    2.3496   59.6137 C.3     1  <0>        -0.1400
     14 C14        -9.7600    1.4634   58.7623 C.3     1  <0>         0.1200
     15 N15        -9.3572    1.7662   55.1343 N.ar    1  <0>        -0.5700
     16 C16        -9.5922    1.0979   54.0173 C.ar    1  <0>         0.3200
     17 C17        -9.0097    1.5690   52.7099 C.3     1  <0>        -0.0700
     18 C18        -9.0756    3.0965   52.6432 C.3     1  <0>        -0.1300
     19 C19        -8.5144    3.5697   51.2986 C.3     1  <0>         0.0900
     20 N20        -7.1642    3.0160   51.1285 N.am    1  <0>        -0.6100
     21 C21        -6.1204    3.8234   50.8545 C.2     1  <0>         0.5900
     22 O22        -6.2913    5.0227   50.7457 O.2     1  <0>        -0.5100
     23 C23        -4.7738    3.2538   50.6868 C.2     1  <0>        -0.0400
     24 C24        -3.8595    2.9746   51.6876 C.2     1  <0>        -0.1500
     25 C25        -2.7419    2.4523   51.0325 C.2     1  <0>         0.0000
     26 N26        -3.0004    2.4349   49.7498 N.2     1  <0>        -0.2700
     27 N27        -4.1781    2.8895   49.5128 N.pl3   1  <0>        -0.3900
     28 C28        -6.9734    1.5654   51.2630 C.3     1  <0>         0.1100
     29 C29        -7.5518    1.1147   52.6080 C.3     1  <0>        -0.1200
     30 H30       -11.0844   -2.9591   53.8823 H       1  <0>         0.1400
     31 H31       -12.5957   -2.0443   53.6639 H       1  <0>         0.1300
     32 H32       -11.9425   -3.0168   52.3238 H       1  <0>         0.1400
     33 H33       -11.5260   -1.3153   55.3553 H       1  <0>         0.1900
     34 H34        -8.1206    3.5490   57.7243 H       1  <0>         0.0700
     35 H35        -9.1909    3.8149   56.3241 H       1  <0>         0.1000
     36 H36        -9.6840    5.3610   58.2524 H       1  <0>         0.0800
     37 H37       -11.0699    4.3365   57.8054 H       1  <0>         0.0700
     38 H38        -9.0929    3.7524   60.0569 H       1  <0>         0.0700
     39 H39       -10.7367    4.3999   60.2717 H       1  <0>         0.0700
     40 H40       -10.7156    1.9541   60.6282 H       1  <0>         0.0800
     41 H41       -11.6669    2.3650   59.1802 H       1  <0>         0.0700
     42 H42       -10.2098    0.4764   58.6551 H       1  <0>         0.1000
     43 H43        -8.7845    1.3728   59.2403 H       1  <0>         0.0700
     44 H44        -9.5807    1.1448   51.8840 H       1  <0>         0.1000
     45 H45       -10.1119    3.4205   52.7392 H       1  <0>         0.0800
     46 H46        -8.4842    3.5219   53.4541 H       1  <0>         0.0900
     47 H47        -9.1573    3.2198   50.4909 H       1  <0>         0.0800
     48 H48        -8.4672    4.6586   51.2852 H       1  <0>         0.0900
     49 H49        -3.9837    3.1280   52.7494 H       1  <0>         0.1700
     50 H50        -1.8268    2.1220   51.5013 H       1  <0>         0.1900
     51 H51        -4.5804    2.9685   48.6338 H       1  <0>         0.4400
     52 H52        -7.4906    1.0520   50.4524 H       1  <0>         0.0800
     53 H53        -5.9093    1.3318   51.2261 H       1  <0>         0.1000
     54 H54        -6.9749    1.5586   53.4193 H       1  <0>         0.0800
     55 H55        -7.5036    0.0280   52.6790 H       1  <0>         0.0900
@<TRIPOS>BOND
     1     1     2    1
     2     1    30    1
     3     1    31    1
     4     1    32    1
     5     2     3    2
     6     2     4    2
     7     2     5    1
     8     5    16   ar
     9     5     6   ar
    10     6     7   ar
    11     6    33    1
    12     7     8   ar
    13     8     9    1
    14     8    15   ar
    15     9    14    1
    16     9    10    1
    17    10    11    1
    18    10    34    1
    19    10    35    1
    20    11    12    1
    21    11    36    1
    22    11    37    1
    23    12    13    1
    24    12    38    1
    25    12    39    1
    26    13    14    1
    27    13    40    1
    28    13    41    1
    29    14    42    1
    30    14    43    1
    31    15    16   ar
    32    16    17    1
    33    17    29    1
    34    17    18    1
    35    17    44    1
    36    18    19    1
    37    18    45    1
    38    18    46    1
    39    19    20    1
    40    19    47    1
    41    19    48    1
    42    20    21   am
    43    20    28    1
    44    21    22    2
    45    21    23    1
    46    23    27    1
    47    23    24    2
    48    24    25    1
    49    24    49    1
    50    25    26    2
    51    25    50    1
    52    26    27    1
    53    27    51    1
    54    28    29    1
    55    28    52    1
    56    28    53    1
    57    29    54    1
    58    29    55    1
@<TRIPOS>SUBSTRUCTURE
     1 <0>         1 TEMP              0 ****  ****    0 ROOT


##########                                Name:    ZINC001328997126
##########                DOCK_Rotatable_Bonds:                   7
##########                         Heavy_Atoms:                  26
##########                    Molecular_Weight:             388.488
##########                DOCK_Rotatable_Bonds:                   7
##########                       Formal_Charge:           0.0299993
##########                     HBond_Acceptors:                  10
##########                        HBond_Donors:                   1
##########                         Heavy_Atoms:                  26
##########                          Grid_Score:          -34.417973
##########                     Grid_vdw_energy:          -33.162857
##########                      Grid_es_energy:           -1.255117
##########           Internal_energy_repulsive:            8.789307

@<TRIPOS>MOLECULE
ZINC001328997126
 54 56 1 0 0
SMALL
USER_CHARGES


@<TRIPOS>ATOM
      1 C1        -10.0618    2.4475   54.6409 C.3     1  ZINC001328997126   -0.1700
      2 C2        -10.2976    1.0037   54.1927 C.3     1  ZINC001328997126    0.1400
      3 N3         -9.2906    0.6313   53.1960 N.am    1  ZINC001328997126   -0.6300
      4 C4         -7.9180    1.1556   53.1295 C.3     1  ZINC001328997126    0.0700
      5 C5         -7.3094    0.4370   51.9098 C.3     1  ZINC001328997126    0.0700
      6 H6         -6.4560   -0.1708   52.2110 H       1  ZINC001328997126    0.1200
      7 C7         -6.8937    1.4509   50.8421 C.3     1  ZINC001328997126    0.0500
      8 N8         -5.7952    2.2800   51.3555 N.3     1  ZINC001328997126   -0.5300
      9 C9         -5.6560    3.5147   50.5708 C.3     1  ZINC001328997126    0.0500
     10 C10        -4.5566    4.3849   51.1845 C.3     1  ZINC001328997126    0.0600
     11 N11        -3.2945    3.6325   51.2057 N.3     1  ZINC001328997126   -0.5200
     12 C12        -2.1959    4.4616   51.7192 C.3     1  ZINC001328997126    0.0400
     13 C13        -0.9177    4.0986   51.0082 C.2     1  ZINC001328997126    0.5200
     14 O14        -0.6690    4.5814   49.9237 O.2     1  ZINC001328997126   -0.5100
     15 N15        -0.0512    3.2375   51.5773 N.am    1  ZINC001328997126   -0.7300
     16 C16         1.1905    2.8833   50.8853 C.3     1  ZINC001328997126    0.1600
     17 H17         1.3137    3.5163   50.0066 H       1  ZINC001328997126    0.1100
     18 C18         2.3857    3.0779   51.8346 C.3     1  ZINC001328997126   -0.1400
     19 C19         3.6001    2.3819   51.1677 C.3     1  ZINC001328997126   -0.5800
     20 S20         2.8705    0.8219   50.5403 S.o2    1  ZINC001328997126    2.4000
     21 O21         3.3508    0.5724   49.2264 O.2     1  ZINC001328997126   -0.9300
     22 O22         2.9816   -0.1844   51.5374 O.2     1  ZINC001328997126   -0.9300
     23 C23         1.1402    1.4036   50.4551 C.3     1  ZINC001328997126   -0.6100
     24 C24        -3.4337    2.3979   51.9905 C.3     1  ZINC001328997126    0.0500
     25 C25        -4.5330    1.5277   51.3767 C.3     1  ZINC001328997126    0.0600
     26 O26        -8.3915   -0.4080   51.4221 O.3     1  ZINC001328997126   -0.3100
     27 C27        -9.4682   -0.2469   52.1995 C.2     1  ZINC001328997126    0.6400
     28 O28       -10.5141   -0.8368   52.0140 O.2     1  ZINC001328997126   -0.5200
     29 H29        -9.0674    2.5342   55.0790 H       1  ZINC001328997126    0.0600
     30 H30       -10.1390    3.1122   53.7806 H       1  ZINC001328997126    0.0600
     31 H31       -10.8109    2.7247   55.3826 H       1  ZINC001328997126    0.0700
     32 H32       -10.2204    0.3390   55.0532 H       1  ZINC001328997126    0.0900
     33 H33       -11.2919    0.9171   53.7547 H       1  ZINC001328997126    0.0900
     34 H34        -7.9272    2.2343   52.9730 H       1  ZINC001328997126    0.0900
     35 H35        -7.3677    0.9040   54.0361 H       1  ZINC001328997126    0.0900
     36 H36        -6.5629    0.9222   49.9482 H       1  ZINC001328997126    0.0900
     37 H37        -7.7437    2.0868   50.5944 H       1  ZINC001328997126    0.0600
     38 H38        -5.3908    3.2647   49.5435 H       1  ZINC001328997126    0.0500
     39 H39        -6.5996    4.0602   50.5806 H       1  ZINC001328997126    0.0900
     40 H40        -4.4318    5.2880   50.5872 H       1  ZINC001328997126    0.0800
     41 H41        -4.8346    4.6575   52.2027 H       1  ZINC001328997126    0.0500
     42 H42        -2.4224    5.5135   51.5449 H       1  ZINC001328997126    0.1100
     43 H43        -2.0787    4.2876   52.7889 H       1  ZINC001328997126    0.0700
     44 H44        -0.2496    2.8523   52.4451 H       1  ZINC001328997126    0.4100
     45 H45         2.5898    4.1407   51.9649 H       1  ZINC001328997126    0.1100
     46 H46         2.1748    2.6168   52.7996 H       1  ZINC001328997126    0.0900
     47 H47         3.9887    2.9848   50.3469 H       1  ZINC001328997126    0.1400
     48 H48         4.3796    2.1768   51.9014 H       1  ZINC001328997126    0.1400
     49 H49         0.5140    0.8303   51.1388 H       1  ZINC001328997126    0.1400
     50 H50         0.7630    1.3214   49.4358 H       1  ZINC001328997126    0.1500
     51 H51        -2.4901    1.8524   51.9806 H       1  ZINC001328997126    0.1000
     52 H52        -3.6988    2.6480   53.0177 H       1  ZINC001328997126    0.0400
     53 H53        -4.6579    0.6246   51.9741 H       1  ZINC001328997126    0.0800
     54 H54        -4.2551    1.2551   50.3585 H       1  ZINC001328997126    0.0500
@<TRIPOS>BOND
     1     1     2    1
     2     1    29    1
     3     1    30    1
     4     1    31    1
     5     2     3    1
     6     2    32    1
     7     2    33    1
     8     3    27   am
     9     3     4    1
    10     4     5    1
    11     4    34    1
    12     4    35    1
    13     5     6    1
    14     5     7    1
    15     5    26    1
    16     7     8    1
    17     7    36    1
    18     7    37    1
    19     8    25    1
    20     8     9    1
    21     9    10    1
    22     9    38    1
    23     9    39    1
    24    10    11    1
    25    10    40    1
    26    10    41    1
    27    11    12    1
    28    11    24    1
    29    12    13    1
    30    12    42    1
    31    12    43    1
    32    13    14    2
    33    13    15   am
    34    15    16    1
    35    15    44    1
    36    16    17    1
    37    16    23    1
    38    16    18    1
    39    18    19    1
    40    18    45    1
    41    18    46    1
    42    19    20    1
    43    19    47    1
    44    19    48    1
    45    20    21    2
    46    20    22    2
    47    20    23    1
    48    23    49    1
    49    23    50    1
    50    24    25    1
    51    24    51    1
    52    24    52    1
    53    25    53    1
    54    25    54    1
    55    26    27    1
    56    27    28    2
@<TRIPOS>SUBSTRUCTURE
     1 ZINC001328997126        1 TEMP              0 ****  ****    0 ROOT


##########                                Name:    ZINC000770850676
##########                DOCK_Rotatable_Bonds:                  13
##########                         Heavy_Atoms:                  30
##########                    Molecular_Weight:             412.486
##########                DOCK_Rotatable_Bonds:                  13
##########                       Formal_Charge:          -0.0299994
##########                     HBond_Acceptors:                   7
##########                        HBond_Donors:                   3
##########                         Heavy_Atoms:                  30
##########                          Grid_Score:          -34.416851
##########                     Grid_vdw_energy:          -34.385338
##########                      Grid_es_energy:           -0.031512
##########           Internal_energy_repulsive:           12.281014

@<TRIPOS>MOLECULE
ZINC000770850676
 58 60 1 0 0
SMALL
USER_CHARGES


@<TRIPOS>ATOM
      1 O1        -10.9620   -2.6479   55.5134 O.2     1  ZINC000770850676   -0.5300
      2 C2        -11.5204   -2.0682   56.4206 C.2     1  ZINC000770850676    0.5100
      3 N3        -11.5084   -0.7213   56.4682 N.am    1  ZINC000770850676   -0.7000
      4 C4        -10.8157    0.0423   55.4274 C.3     1  ZINC000770850676    0.1600
      5 H5        -10.0440   -0.5795   54.9734 H       1  ZINC000770850676    0.1000
      6 C6        -10.1708    1.2828   56.0488 C.3     1  ZINC000770850676    0.0600
      7 O7         -8.9178    1.5384   55.4112 O.3     1  ZINC000770850676   -0.5700
      8 C8        -11.8200    0.4719   54.3562 C.3     1  ZINC000770850676   -0.1500
      9 C9        -11.4932   -0.2335   53.0384 C.3     1  ZINC000770850676    0.1500
     10 H10       -11.3841   -1.3033   53.2164 H       1  ZINC000770850676    0.1100
     11 O11       -12.5514   -0.0115   52.1041 O.3     1  ZINC000770850676   -0.5400
     12 C12       -10.2063    0.3167   52.4797 C.ar    1  ZINC000770850676   -0.1200
     13 C13        -9.1393   -0.5289   52.2402 C.ar    1  ZINC000770850676   -0.1100
     14 C14        -7.9589   -0.0242   51.7278 C.ar    1  ZINC000770850676   -0.1200
     15 C15        -7.8455    1.3260   51.4543 C.ar    1  ZINC000770850676   -0.1200
     16 C16        -8.9127    2.1716   51.6930 C.ar    1  ZINC000770850676   -0.1200
     17 C17       -10.0947    1.6662   52.2014 C.ar    1  ZINC000770850676   -0.1100
     18 C18       -12.2330   -2.8536   57.4913 C.3     1  ZINC000770850676    0.1400
     19 H19       -12.0167   -3.9159   57.3776 H       1  ZINC000770850676    0.1000
     20 C20       -13.7544   -2.6145   57.3928 C.3     1  ZINC000770850676   -0.1200
     21 C21       -14.1937   -2.5543   58.8797 C.3     1  ZINC000770850676   -0.1300
     22 C22       -12.9759   -1.8571   59.5358 C.3     1  ZINC000770850676    0.1000
     23 N23       -11.8008   -2.3946   58.8195 N.am    1  ZINC000770850676   -0.5900
     24 C24       -10.5442   -2.4518   59.3035 C.2     1  ZINC000770850676    0.6700
     25 O25        -9.6513   -2.9157   58.6224 O.2     1  ZINC000770850676   -0.5600
     26 O26       -10.2784   -1.9948   60.5417 O.3     1  ZINC000770850676   -0.3600
     27 C27        -9.2153   -1.0140   60.6682 C.3     1  ZINC000770850676    0.1300
     28 C28        -9.3971   -0.2383   61.9473 C.ar    1  ZINC000770850676   -0.1000
     29 C29       -10.3258    0.7837   62.0099 C.ar    1  ZINC000770850676   -0.0900
     30 C30       -10.4926    1.4952   63.1833 C.ar    1  ZINC000770850676   -0.1200
     31 C31        -9.7309    1.1845   64.2942 C.ar    1  ZINC000770850676   -0.1100
     32 C32        -8.8027    0.1620   64.2319 C.ar    1  ZINC000770850676   -0.1200
     33 C33        -8.6390   -0.5524   63.0598 C.ar    1  ZINC000770850676   -0.0900
     34 H34       -11.9584   -0.2575   57.1916 H       1  ZINC000770850676    0.4000
     35 H35       -10.8292    2.1409   55.9135 H       1  ZINC000770850676    0.0500
     36 H36       -10.0089    1.1134   57.1134 H       1  ZINC000770850676    0.0500
     37 H37        -8.3496    0.7597   55.3341 H       1  ZINC000770850676    0.3800
     38 H38       -12.8273    0.2013   54.6731 H       1  ZINC000770850676    0.0800
     39 H39       -11.7613    1.5511   54.2150 H       1  ZINC000770850676    0.0900
     40 H40       -12.6782    0.9173   51.8666 H       1  ZINC000770850676    0.3700
     41 H41        -9.2279   -1.5839   52.4539 H       1  ZINC000770850676    0.1200
     42 H42        -7.1250   -0.6848   51.5414 H       1  ZINC000770850676    0.1200
     43 H43        -6.9230    1.7205   51.0547 H       1  ZINC000770850676    0.1200
     44 H44        -8.8241    3.2265   51.4797 H       1  ZINC000770850676    0.1200
     45 H45       -10.9285    2.3268   52.3878 H       1  ZINC000770850676    0.1200
     46 H46       -13.9646   -1.6704   56.8901 H       1  ZINC000770850676    0.0800
     47 H47       -14.2427   -3.4430   56.8796 H       1  ZINC000770850676    0.1000
     48 H48       -15.0967   -1.9550   58.9964 H       1  ZINC000770850676    0.0900
     49 H49       -14.3361   -3.5558   59.2858 H       1  ZINC000770850676    0.0800
     50 H50       -13.0407   -0.7770   59.4040 H       1  ZINC000770850676    0.0700
     51 H51       -12.9203   -2.1082   60.5950 H       1  ZINC000770850676    0.0900
     52 H52        -8.2515   -1.5230   60.6857 H       1  ZINC000770850676    0.0800
     53 H53        -9.2493   -0.3298   59.8203 H       1  ZINC000770850676    0.0800
     54 H54       -10.9209    1.0264   61.1419 H       1  ZINC000770850676    0.1200
     55 H55       -11.2177    2.2941   63.2319 H       1  ZINC000770850676    0.1300
     56 H56        -9.8607    1.7410   65.2108 H       1  ZINC000770850676    0.1300
     57 H57        -8.2074   -0.0804   65.0998 H       1  ZINC000770850676    0.1300
     58 H58        -7.9139   -1.3512   63.0112 H       1  ZINC000770850676    0.1200
@<TRIPOS>BOND
     1     1     2    2
     2     2     3   am
     3     2    18    1
     4     3     4    1
     5     3    34    1
     6     4     5    1
     7     4     6    1
     8     4     8    1
     9     6     7    1
    10     6    35    1
    11     6    36    1
    12     7    37    1
    13     8     9    1
    14     8    38    1
    15     8    39    1
    16     9    10    1
    17     9    11    1
    18     9    12    1
    19    11    40    1
    20    12    17   ar
    21    12    13   ar
    22    13    14   ar
    23    13    41    1
    24    14    15   ar
    25    14    42    1
    26    15    16   ar
    27    15    43    1
    28    16    17   ar
    29    16    44    1
    30    17    45    1
    31    18    19    1
    32    18    23    1
    33    18    20    1
    34    20    21    1
    35    20    46    1
    36    20    47    1
    37    21    22    1
    38    21    48    1
    39    21    49    1
    40    22    23    1
    41    22    50    1
    42    22    51    1
    43    23    24   am
    44    24    25    2
    45    24    26    1
    46    26    27    1
    47    27    28    1
    48    27    52    1
    49    27    53    1
    50    28    33   ar
    51    28    29   ar
    52    29    30   ar
    53    29    54    1
    54    30    31   ar
    55    30    55    1
    56    31    32   ar
    57    31    56    1
    58    32    33   ar
    59    32    57    1
    60    33    58    1
@<TRIPOS>SUBSTRUCTURE
     1 ZINC000770850676        1 TEMP              0 ****  ****    0 ROOT


##########                                Name:     oleObject70.pdb
##########                DOCK_Rotatable_Bonds:                   9
##########                         Heavy_Atoms:                  35
##########                    Molecular_Weight:             504.458
##########                DOCK_Rotatable_Bonds:                   9
##########                       Formal_Charge:          0.00010002
##########                     HBond_Acceptors:                   6
##########                        HBond_Donors:                   2
##########                         Heavy_Atoms:                  35
##########                          Grid_Score:          -34.412514
##########                     Grid_vdw_energy:          -34.470104
##########                      Grid_es_energy:            0.057592
##########           Internal_energy_repulsive:           14.962586

@<TRIPOS>MOLECULE
oleObject70.pdb
 62 65 1 0 0
SMALL
NO_CHARGES


@<TRIPOS>ATOM
      1 C         -10.7302   -2.5832   59.2548 C.ar    1  UNL        -0.0620
      2 C         -11.2987   -1.3409   58.9390 C.ar    1  UNL        -0.0590
      3 C         -11.7076   -1.0497   57.6230 C.ar    1  UNL        -0.0456
      4 C         -11.5528   -2.0265   56.6064 C.ar    1  UNL        -0.0187
      5 C         -10.9648   -3.2668   56.9379 C.ar    1  UNL        -0.0565
      6 C         -10.5589   -3.5452   58.2514 C.ar    1  UNL        -0.0619
      7 C         -11.9881   -1.7445   55.1573 C.3     1  UNL         0.0909
      8 C         -13.5066   -1.5685   54.9839 C.ar    1  UNL         0.0681
      9 C         -14.4123   -2.6378   55.2018 C.ar    1  UNL        -0.0272
     10 C         -15.7874   -2.3986   55.0181 C.ar    1  UNL        -0.0559
     11 C         -16.2138   -1.1196   54.6328 C.ar    1  UNL        -0.0435
     12 C         -15.2498   -0.1181   54.4461 C.ar    1  UNL         0.0272
     13 N         -13.9332   -0.3367   54.6196 N.ar    1  UNL        -0.2587
     14 C         -13.9473   -4.0284   55.6197 C.3     1  UNL        -0.0379
     15 N         -11.1653   -0.7029   54.5035 N.am    1  UNL        -0.2987
     16 C         -10.4149   -0.8455   53.3428 C.2     1  UNL         0.2437
     17 O         -10.3663   -1.8893   52.7149 O.2     1  UNL        -0.2719
     18 C          -9.6602    0.3785   52.8817 C.ar    1  UNL         0.0371
     19 C          -8.5386    0.2921   52.0265 C.ar    1  UNL        -0.0494
     20 C          -7.8607    1.4517   51.6156 C.ar    1  UNL        -0.0570
     21 C          -8.2876    2.7176   52.0495 C.ar    1  UNL        -0.0341
     22 C          -9.4031    2.8129   52.8979 C.ar    1  UNL        -0.0570
     23 C         -10.0813    1.6545   53.3103 C.ar    1  UNL        -0.0494
     24 C          -7.5563    3.9703   51.5973 C.3     1  UNL         0.0208
     25 N          -6.1077    3.7440   51.5168 N.4     1  UNL        -0.3086
     26 C          -5.3776    4.8163   50.8278 C.3     1  UNL         0.0223
     27 C          -3.8737    4.5799   50.8636 C.ar    1  UNL        -0.0154
     28 C          -3.0581    5.4408   51.6228 C.ar    1  UNL        -0.0548
     29 C          -1.6688    5.2428   51.6770 C.ar    1  UNL        -0.0431
     30 C          -1.0849    4.1790   50.9719 C.ar    1  UNL         0.0421
     31 C          -1.8889    3.3129   50.2146 C.ar    1  UNL        -0.0245
     32 C          -3.2792    3.5098   50.1594 C.ar    1  UNL         0.0465
     33 CL         -4.2425    2.3953   49.2067 Cl      1  UNL        -0.0839
     34 CL          0.6468    3.9305   51.0395 Cl      1  UNL        -0.0843
     35 C         -12.2936    0.3286   57.3331 C.3     1  UNL        -0.0394
     36 H         -10.4142   -2.7952   60.2722 H       1  UNL         0.0623
     37 H         -11.4155   -0.5980   59.7231 H       1  UNL         0.0626
     38 H         -10.8078   -4.0220   56.1751 H       1  UNL         0.0627
     39 H         -10.1076   -4.5043   58.4883 H       1  UNL         0.0623
     40 H         -11.7388   -2.6486   54.5938 H       1  UNL         0.0624
     41 H         -16.5148   -3.1910   55.1690 H       1  UNL         0.0627
     42 H         -17.2681   -0.9079   54.4818 H       1  UNL         0.0639
     43 H         -15.5381    0.8887   54.1469 H       1  UNL         0.0840
     44 H         -13.3410   -4.4951   54.8339 H       1  UNL         0.0280
     45 H         -14.7964   -4.6953   55.8149 H       1  UNL         0.0280
     46 H         -13.3480   -3.9894   56.5373 H       1  UNL         0.0280
     47 H         -11.1412    0.2030   54.9504 H       1  UNL         0.1508
     48 H          -8.1786   -0.6677   51.6705 H       1  UNL         0.0631
     49 H          -7.0026    1.3665   50.9545 H       1  UNL         0.0626
     50 H          -9.7479    3.7859   53.2369 H       1  UNL         0.0626
     51 H         -10.9419    1.7544   53.9661 H       1  UNL         0.0631
     52 H          -7.7666    4.7844   52.3032 H       1  UNL         0.0479
     53 H          -7.9391    4.2762   50.6148 H       1  UNL         0.0479
     54 H          -5.9349    2.8613   51.0361 H       1  UNL         0.1229
     55 H          -5.6043    5.7786   51.3048 H       1  UNL         0.0480
     56 H          -5.7102    4.8856   49.7841 H       1  UNL         0.0480
     57 H          -3.5026    6.2639   52.1754 H       1  UNL         0.0627
     58 H          -1.0477    5.9119   52.2659 H       1  UNL         0.0639
     59 H          -1.4354    2.4882   49.6722 H       1  UNL         0.0654
     60 H         -12.1992    0.9995   58.1962 H       1  UNL         0.0280
     61 H         -13.3604    0.2593   57.0870 H       1  UNL         0.0280
     62 H         -11.7788    0.8102   56.4923 H       1  UNL         0.0280
@<TRIPOS>BOND
     1     1     2   ar
     2     1     6   ar
     3     1    36    1
     4     2     3   ar
     5     2    37    1
     6     3     4   ar
     7     3    35    1
     8     4     5   ar
     9     4     7    1
    10     5     6   ar
    11     5    38    1
    12     6    39    1
    13     7     8    1
    14     7    15    1
    15     7    40    1
    16     8     9   ar
    17     8    13   ar
    18     9    10   ar
    19     9    14    1
    20    10    11   ar
    21    10    41    1
    22    11    12   ar
    23    11    42    1
    24    12    13   ar
    25    12    43    1
    26    14    44    1
    27    14    45    1
    28    14    46    1
    29    15    16   am
    30    15    47    1
    31    16    17    2
    32    16    18    1
    33    18    19   ar
    34    18    23   ar
    35    19    20   ar
    36    19    48    1
    37    20    21   ar
    38    20    49    1
    39    21    22   ar
    40    21    24    1
    41    22    23   ar
    42    22    50    1
    43    23    51    1
    44    24    25    1
    45    24    52    1
    46    24    53    1
    47    25    26    1
    48    25    54    1
    49    26    27    1
    50    26    55    1
    51    26    56    1
    52    27    28   ar
    53    27    32   ar
    54    28    29   ar
    55    28    57    1
    56    29    30   ar
    57    29    58    1
    58    30    31   ar
    59    30    34    1
    60    31    32   ar
    61    31    59    1
    62    32    33    1
    63    35    60    1
    64    35    61    1
    65    35    62    1
@<TRIPOS>SUBSTRUCTURE
     1 UNL         1 TEMP              0 ****  ****    0 ROOT


##########                                Name:    ZINC000482846390
##########                DOCK_Rotatable_Bonds:                   9
##########                         Heavy_Atoms:                  30
##########                    Molecular_Weight:             420.469
##########                DOCK_Rotatable_Bonds:                   9
##########                       Formal_Charge:          -0.0100011
##########                     HBond_Acceptors:                  11
##########                        HBond_Donors:                   2
##########                         Heavy_Atoms:                  30
##########                          Grid_Score:          -34.396812
##########                     Grid_vdw_energy:          -34.149475
##########                      Grid_es_energy:           -0.247336
##########           Internal_energy_repulsive:           25.020248

@<TRIPOS>MOLECULE
ZINC000482846390
 58 60 1 0 0
SMALL
USER_CHARGES


@<TRIPOS>ATOM
      1 C1         -5.0519    1.4404   51.5169 C.3     1  ZINC000482846390   -0.1000
      2 C2         -6.4887    1.0225   51.6956 C.2     1  ZINC000482846390    0.0900
      3 C3         -7.5473    1.8511   51.8498 C.2     1  ZINC000482846390   -0.2700
      4 C4         -8.6951    1.0630   51.9829 C.2     1  ZINC000482846390    0.0700
      5 C5        -10.1000    1.5732   52.1748 C.3     1  ZINC000482846390   -0.0500
      6 C6        -10.3978    1.6975   53.6703 C.3     1  ZINC000482846390    0.1500
      7 H7        -11.4106    2.0761   53.8089 H       1  ZINC000482846390    0.1000
      8 C8         -9.3999    2.6647   54.3104 C.3     1  ZINC000482846390   -0.1700
      9 N9        -10.2775    0.3818   54.3033 N.am    1  ZINC000482846390   -0.6800
     10 C10       -11.3817   -0.3498   54.5521 C.2     1  ZINC000482846390    0.5100
     11 O11       -12.4754    0.0805   54.2504 O.2     1  ZINC000482846390   -0.5200
     12 C12       -11.2590   -1.6913   55.1995 C.2     1  ZINC000482846390    0.5100
     13 O13       -10.9023   -2.6498   54.5464 O.2     1  ZINC000482846390   -0.5100
     14 N14       -11.5444   -1.8364   56.5086 N.am    1  ZINC000482846390   -0.5900
     15 C15       -11.4222   -3.1483   57.1598 C.3     1  ZINC000482846390    0.0500
     16 C16       -10.4894   -3.0101   58.3693 C.3     1  ZINC000482846390    0.1000
     17 N17       -10.9278   -1.8594   59.1714 N.am    1  ZINC000482846390   -0.6000
     18 C18       -11.2123   -2.0044   60.4808 C.2     1  ZINC000482846390    0.5200
     19 O19       -11.1074   -3.0925   61.0076 O.2     1  ZINC000482846390   -0.5000
     20 C20       -11.6570   -0.8251   61.2840 C.2     1  ZINC000482846390    0.5200
     21 O21       -12.8406   -0.6185   61.4542 O.2     1  ZINC000482846390   -0.5000
     22 N22       -10.7435    0.0089   61.8192 N.am    1  ZINC000482846390   -0.6000
     23 C23       -11.1572    1.1730   62.6187 C.3     1  ZINC000482846390    0.0700
     24 C24       -10.3775    1.1548   63.9383 C.3     1  ZINC000482846390    0.0500
     25 O25        -8.9802    1.0413   63.6580 O.3     1  ZINC000482846390   -0.3700
     26 C26        -8.6137   -0.1682   62.9898 C.3     1  ZINC000482846390    0.0500
     27 C27        -9.3030   -0.2210   61.6263 C.3     1  ZINC000482846390    0.0700
     28 C28       -11.0500   -0.5474   58.5203 C.3     1  ZINC000482846390    0.0900
     29 C29       -11.9774   -0.6845   57.3121 C.3     1  ZINC000482846390    0.0900
     30 N30        -8.3384   -0.1938   51.9113 N.2     1  ZINC000482846390   -0.2800
     31 N31        -6.9510   -0.2451   51.7247 N.pl3   1  ZINC000482846390   -0.4700
     32 H32        -4.8394    1.5662   50.4553 H       1  ZINC000482846390    0.0800
     33 H33        -4.8805    2.3834   52.0361 H       1  ZINC000482846390    0.0900
     34 H34        -4.3965    0.6738   51.9303 H       1  ZINC000482846390    0.0700
     35 H35        -7.5121    2.9304   51.8672 H       1  ZINC000482846390    0.1500
     36 H36       -10.1994    2.5503   51.7021 H       1  ZINC000482846390    0.0900
     37 H37       -10.8047    0.8766   51.7206 H       1  ZINC000482846390    0.1100
     38 H38        -9.4895    3.6436   53.8395 H       1  ZINC000482846390    0.0700
     39 H39        -9.6121    2.7532   55.3759 H       1  ZINC000482846390    0.0700
     40 H40        -8.3872    2.2861   54.1719 H       1  ZINC000482846390    0.0600
     41 H41        -9.4031    0.0372   54.5434 H       1  ZINC000482846390    0.4200
     42 H42       -12.4044   -3.4847   57.4918 H       1  ZINC000482846390    0.0800
     43 H43       -11.0047   -3.8685   56.4561 H       1  ZINC000482846390    0.1600
     44 H44       -10.5368   -3.9163   58.9733 H       1  ZINC000482846390    0.1100
     45 H45        -9.4673   -2.8490   58.0265 H       1  ZINC000482846390    0.0800
     46 H46       -10.9350    2.0904   62.0736 H       1  ZINC000482846390    0.0900
     47 H47       -12.2264    1.1167   62.8231 H       1  ZINC000482846390    0.0900
     48 H48       -10.5652    2.0790   64.4849 H       1  ZINC000482846390    0.1100
     49 H49       -10.6985    0.3039   64.5393 H       1  ZINC000482846390    0.0600
     50 H50        -7.5326   -0.1959   62.8540 H       1  ZINC000482846390    0.1100
     51 H51        -8.9283   -1.0239   63.5873 H       1  ZINC000482846390    0.0600
     52 H52        -9.1433   -1.1988   61.1718 H       1  ZINC000482846390    0.1100
     53 H53        -8.8962    0.5560   60.9790 H       1  ZINC000482846390    0.0800
     54 H54       -11.4675    0.1727   59.2240 H       1  ZINC000482846390    0.0900
     55 H55       -10.0678   -0.2110   58.1883 H       1  ZINC000482846390    0.0900
     56 H56       -11.9291    0.2223   56.7091 H       1  ZINC000482846390    0.1100
     57 H57       -13.0002   -0.8464   57.6525 H       1  ZINC000482846390    0.0800
     58 H58        -6.4161   -1.0497   51.6378 H       1  ZINC000482846390    0.4400
@<TRIPOS>BOND
     1     1     2    1
     2     1    32    1
     3     1    33    1
     4     1    34    1
     5     2    31    1
     6     2     3    2
     7     3     4    1
     8     3    35    1
     9     4     5    1
    10     4    30    2
    11     5     6    1
    12     5    36    1
    13     5    37    1
    14     6     7    1
    15     6     8    1
    16     6     9    1
    17     8    38    1
    18     8    39    1
    19     8    40    1
    20     9    10   am
    21     9    41    1
    22    10    11    2
    23    10    12    1
    24    12    13    2
    25    12    14   am
    26    14    29    1
    27    14    15    1
    28    15    16    1
    29    15    42    1
    30    15    43    1
    31    16    17    1
    32    16    44    1
    33    16    45    1
    34    17    18   am
    35    17    28    1
    36    18    19    2
    37    18    20    1
    38    20    21    2
    39    20    22   am
    40    22    27    1
    41    22    23    1
    42    23    24    1
    43    23    46    1
    44    23    47    1
    45    24    25    1
    46    24    48    1
    47    24    49    1
    48    25    26    1
    49    26    27    1
    50    26    50    1
    51    26    51    1
    52    27    52    1
    53    27    53    1
    54    28    29    1
    55    28    54    1
    56    28    55    1
    57    29    56    1
    58    29    57    1
    59    30    31    1
    60    31    58    1
@<TRIPOS>SUBSTRUCTURE
     1 ZINC000482846390        1 TEMP              0 ****  ****    0 ROOT


##########                                Name:    ZINC000484900616
##########                DOCK_Rotatable_Bonds:                  10
##########                         Heavy_Atoms:                  29
##########                    Molecular_Weight:             415.556
##########                DOCK_Rotatable_Bonds:                  10
##########                       Formal_Charge:        -1.49012e-08
##########                     HBond_Acceptors:                   7
##########                        HBond_Donors:                   1
##########                         Heavy_Atoms:                  29
##########                          Grid_Score:          -34.390648
##########                     Grid_vdw_energy:          -34.136608
##########                      Grid_es_energy:           -0.254038
##########           Internal_energy_repulsive:           13.129274

@<TRIPOS>MOLECULE
ZINC000484900616
 58 60 1 0 0
SMALL
USER_CHARGES


@<TRIPOS>ATOM
      1 C1        -11.9761   -3.2195   55.2103 C.3     1  ZINC000484900616   -0.1500
      2 C2        -12.6565   -1.8979   54.8478 C.3     1  ZINC000484900616    0.0600
      3 O3        -11.6456   -0.8887   54.5872 O.3     1  ZINC000484900616   -0.3400
      4 C4        -10.9069   -1.0369   53.4695 C.2     1  ZINC000484900616    0.5500
      5 O5        -11.2451   -1.8369   52.6191 O.2     1  ZINC000484900616   -0.5000
      6 C6         -9.6913   -0.2304   53.2787 C.2     1  ZINC000484900616    0.0200
      7 C7         -8.8463   -0.4009   52.2361 C.2     1  ZINC000484900616   -0.2400
      8 S8         -7.5659    0.7231   52.3746 S.3     1  ZINC000484900616    0.2900
      9 C9         -8.2313    1.3553   53.8146 C.2     1  ZINC000484900616    0.0300
     10 C10        -7.6279    2.4787   54.6178 C.3     1  ZINC000484900616    0.1500
     11 H11        -6.6131    2.2234   54.9231 H       1  ZINC000484900616    0.0900
     12 C12        -7.6295    3.7912   53.7950 C.3     1  ZINC000484900616   -0.1200
     13 C13        -7.5977    4.8635   54.9157 C.3     1  ZINC000484900616   -0.1400
     14 C14        -8.4603    4.2302   56.0276 C.3     1  ZINC000484900616    0.0500
     15 N15        -8.4633    2.7714   55.8019 N.3     1  ZINC000484900616   -0.5100
     16 C16        -7.9739    2.0543   56.9868 C.3     1  ZINC000484900616    0.0300
     17 C17        -9.1458    1.5890   57.8122 C.2     1  ZINC000484900616    0.5200
     18 O18       -10.1236    2.2968   57.9299 O.2     1  ZINC000484900616   -0.5100
     19 N19        -9.1073    0.3865   58.4193 N.am    1  ZINC000484900616   -0.7300
     20 C20       -10.2473   -0.0666   59.2203 C.3     1  ZINC000484900616    0.1900
     21 H21       -11.1147    0.5567   59.0029 H       1  ZINC000484900616    0.1000
     22 C22       -10.5663   -1.5227   58.8753 C.3     1  ZINC000484900616   -0.1600
     23 C23        -9.9065    0.0397   60.6843 C.ar    1  ZINC000484900616   -0.1000
     24 C24       -10.6415    0.8735   61.5064 C.ar    1  ZINC000484900616   -0.1100
     25 C25       -10.3288    0.9709   62.8494 C.ar    1  ZINC000484900616   -0.1100
     26 C26        -9.2816    0.2343   63.3705 C.ar    1  ZINC000484900616   -0.0800
     27 C27        -8.9405    0.3408   64.8345 C.3     1  ZINC000484900616   -0.0900
     28 C28        -7.7647    1.3029   65.0155 C.3     1  ZINC000484900616   -0.1500
     29 C29        -8.5476   -0.6005   62.5488 C.ar    1  ZINC000484900616   -0.1100
     30 C30        -8.8627   -0.7009   61.2065 C.ar    1  ZINC000484900616   -0.1000
     31 N31        -9.3216    0.7430   54.1158 N.2     1  ZINC000484900616   -0.4300
     32 H32       -11.3452   -3.5425   54.3821 H       1  ZINC000484900616    0.0700
     33 H33       -11.3635   -3.0804   56.1011 H       1  ZINC000484900616    0.0700
     34 H34       -12.7350   -3.9772   55.4059 H       1  ZINC000484900616    0.0800
     35 H35       -13.2691   -2.0370   53.9571 H       1  ZINC000484900616    0.0700
     36 H36       -13.2874   -1.5749   55.6759 H       1  ZINC000484900616    0.0700
     37 H37        -8.9618   -1.1279   51.4459 H       1  ZINC000484900616    0.1900
     38 H38        -6.7424    3.8583   53.1651 H       1  ZINC000484900616    0.0900
     39 H39        -8.5375    3.8769   53.1983 H       1  ZINC000484900616    0.0800
     40 H40        -6.5779    5.0262   55.2647 H       1  ZINC000484900616    0.0700
     41 H41        -8.0408    5.7969   54.5687 H       1  ZINC000484900616    0.0800
     42 H42        -8.0286    4.4519   57.0035 H       1  ZINC000484900616    0.0600
     43 H43        -9.4778    4.6171   55.9732 H       1  ZINC000484900616    0.0900
     44 H44        -7.3856    1.1922   56.6726 H       1  ZINC000484900616    0.1100
     45 H45        -7.3512    2.7211   57.5835 H       1  ZINC000484900616    0.0700
     46 H46        -8.3247   -0.1790   58.3263 H       1  ZINC000484900616    0.4000
     47 H47       -11.4144   -1.8598   59.4711 H       1  ZINC000484900616    0.0700
     48 H48       -10.8128   -1.5995   57.8163 H       1  ZINC000484900616    0.0700
     49 H49        -9.6989   -2.1460   59.0926 H       1  ZINC000484900616    0.0600
     50 H50       -11.4596    1.4490   61.0992 H       1  ZINC000484900616    0.1200
     51 H51       -10.9026    1.6229   63.4914 H       1  ZINC000484900616    0.1200
     52 H52        -9.8048    0.7161   65.3825 H       1  ZINC000484900616    0.0700
     53 H53        -8.6673   -0.6429   65.2164 H       1  ZINC000484900616    0.0700
     54 H54        -6.9005    0.9275   64.4675 H       1  ZINC000484900616    0.0600
     55 H55        -8.0380    2.2865   64.6337 H       1  ZINC000484900616    0.0600
     56 H56        -7.5180    1.3799   66.0745 H       1  ZINC000484900616    0.0600
     57 H57        -7.7297   -1.1764   62.9560 H       1  ZINC000484900616    0.1200
     58 H58        -8.2892   -1.3532   60.5646 H       1  ZINC000484900616    0.1200
@<TRIPOS>BOND
     1     1     2    1
     2     1    32    1
     3     1    33    1
     4     1    34    1
     5     2     3    1
     6     2    35    1
     7     2    36    1
     8     3     4    1
     9     4     5    2
    10     4     6    1
    11     6    31    1
    12     6     7    2
    13     7     8    1
    14     7    37    1
    15     8     9    1
    16     9    10    1
    17     9    31    2
    18    10    11    1
    19    10    15    1
    20    10    12    1
    21    12    13    1
    22    12    38    1
    23    12    39    1
    24    13    14    1
    25    13    40    1
    26    13    41    1
    27    14    15    1
    28    14    42    1
    29    14    43    1
    30    15    16    1
    31    16    17    1
    32    16    44    1
    33    16    45    1
    34    17    18    2
    35    17    19   am
    36    19    20    1
    37    19    46    1
    38    20    21    1
    39    20    22    1
    40    20    23    1
    41    22    47    1
    42    22    48    1
    43    22    49    1
    44    23    30   ar
    45    23    24   ar
    46    24    25   ar
    47    24    50    1
    48    25    26   ar
    49    25    51    1
    50    26    27    1
    51    26    29   ar
    52    27    28    1
    53    27    52    1
    54    27    53    1
    55    28    54    1
    56    28    55    1
    57    28    56    1
    58    29    30   ar
    59    29    57    1
    60    30    58    1
@<TRIPOS>SUBSTRUCTURE
     1 ZINC000484900616        1 TEMP              0 ****  ****    0 ROOT


##########                                Name:    ZINC000590699876
##########                DOCK_Rotatable_Bonds:                   9
##########                         Heavy_Atoms:                  30
##########                    Molecular_Weight:              421.54
##########                DOCK_Rotatable_Bonds:                   9
##########                       Formal_Charge:          -0.0300004
##########                     HBond_Acceptors:                   9
##########                        HBond_Donors:                   1
##########                         Heavy_Atoms:                  30
##########                          Grid_Score:          -34.390083
##########                     Grid_vdw_energy:          -33.386925
##########                      Grid_es_energy:           -1.003158
##########           Internal_energy_repulsive:          102.039185

@<TRIPOS>MOLECULE
ZINC000590699876
 65 67 1 0 0
SMALL
USER_CHARGES


@<TRIPOS>ATOM
      1 C1          2.7207    2.4734   50.0280 C.3     1  ZINC000590699876   -0.1700
      2 C2          1.5517    3.3550   49.6715 C.2     1  ZINC000590699876    0.5100
      3 O3          1.6615    4.1809   48.7903 O.2     1  ZINC000590699876   -0.5500
      4 N4          0.3840    3.2256   50.3320 N.am    1  ZINC000590699876   -0.7200
      5 C5         -0.7520    4.0839   49.9867 C.3     1  ZINC000590699876    0.1100
      6 C6         -2.0387    3.3499   50.2637 C.2     1  ZINC000590699876    0.5300
      7 O7         -2.5507    2.6751   49.3958 O.2     1  ZINC000590699876   -0.5200
      8 N8         -2.6204    3.4436   51.4758 N.am    1  ZINC000590699876   -0.6000
      9 C9         -2.1087    4.2252   52.6164 C.3     1  ZINC000590699876    0.1000
     10 C10        -3.3560    4.5201   53.4865 C.3     1  ZINC000590699876   -0.1300
     11 C11        -4.1589    3.2009   53.3371 C.3     1  ZINC000590699876   -0.1300
     12 C12        -3.8737    2.7884   51.8777 C.3     1  ZINC000590699876    0.1200
     13 H13        -3.7574    1.7065   51.8143 H       1  ZINC000590699876    0.1000
     14 C14        -5.0053    3.2350   50.9883 C.2     1  ZINC000590699876    0.5100
     15 O15        -4.8753    4.2171   50.2886 O.2     1  ZINC000590699876   -0.5200
     16 N16        -6.1617    2.5431   50.9704 N.am    1  ZINC000590699876   -0.6100
     17 C17        -6.3432    1.3540   51.8168 C.3     1  ZINC000590699876    0.1000
     18 C18        -7.6505    1.5096   52.6009 C.3     1  ZINC000590699876    0.0400
     19 N19        -8.7501    1.7794   51.6649 N.3     1  ZINC000590699876   -0.5200
     20 C20       -10.0459    1.7647   52.3567 C.3     1  ZINC000590699876    0.0400
     21 C21       -10.6118    0.3683   52.3336 C.2     1  ZINC000590699876    0.5200
     22 O22        -9.9814   -0.5332   51.8229 O.2     1  ZINC000590699876   -0.5100
     23 N23       -11.8185    0.1211   52.8807 N.am    1  ZINC000590699876   -0.6100
     24 C24       -12.5941    1.2026   53.5031 C.3     1  ZINC000590699876    0.1100
     25 C25       -12.9705    0.7828   54.9275 C.3     1  ZINC000590699876   -0.1400
     26 C26       -13.6946   -0.5647   54.8833 C.3     1  ZINC000590699876   -0.1200
     27 C27       -12.7626   -1.6275   54.2968 C.3     1  ZINC000590699876   -0.1300
     28 C28       -12.3863   -1.2340   52.8603 C.3     1  ZINC000590699876    0.1400
     29 H29       -13.2761   -1.2537   52.2311 H       1  ZINC000590699876    0.0700
     30 C30       -11.3496   -2.2176   52.3138 C.3     1  ZINC000590699876   -0.1400
     31 C31        -8.5464    3.0495   50.9556 C.3     1  ZINC000590699876    0.0400
     32 C32        -7.2780    2.9607   50.1086 C.3     1  ZINC000590699876    0.1200
     33 H33         3.5703    2.7219   49.3921 H       1  ZINC000590699876    0.1000
     34 H34         2.9899    2.6315   51.0723 H       1  ZINC000590699876    0.0900
     35 H35         2.4473    1.4290   49.8775 H       1  ZINC000590699876    0.0900
     36 H36         0.2957    2.5642   51.0360 H       1  ZINC000590699876    0.4100
     37 H37        -0.7159    4.9932   50.5868 H       1  ZINC000590699876    0.1000
     38 H38        -0.7024    4.3442   48.9294 H       1  ZINC000590699876    0.1000
     39 H39        -1.3819    3.6410   53.1809 H       1  ZINC000590699876    0.0800
     40 H40        -1.6605    5.1556   52.2680 H       1  ZINC000590699876    0.0800
     41 H41        -3.0757    4.6913   54.5258 H       1  ZINC000590699876    0.0900
     42 H42        -3.9174    5.3662   53.0903 H       1  ZINC000590699876    0.0800
     43 H43        -3.7937    2.4461   54.0335 H       1  ZINC000590699876    0.1000
     44 H44        -5.2242    3.3791   53.4838 H       1  ZINC000590699876    0.0900
     45 H45        -6.3955    0.4634   51.1906 H       1  ZINC000590699876    0.0800
     46 H46        -5.5076    1.2680   52.5114 H       1  ZINC000590699876    0.0900
     47 H47        -7.8571    0.5906   53.1496 H       1  ZINC000590699876    0.0900
     48 H48        -7.5577    2.3391   53.3020 H       1  ZINC000590699876    0.0400
     49 H49        -9.9099    2.0846   53.3898 H       1  ZINC000590699876    0.1000
     50 H50       -10.7340    2.4441   51.8537 H       1  ZINC000590699876    0.0600
     51 H51       -11.9925    2.1109   53.5368 H       1  ZINC000590699876    0.0800
     52 H52       -13.4997    1.3830   52.9239 H       1  ZINC000590699876    0.0700
     53 H53       -12.0670    0.6908   55.5304 H       1  ZINC000590699876    0.0700
     54 H54       -13.6267    1.5342   55.3668 H       1  ZINC000590699876    0.0800
     55 H55       -13.9853   -0.8541   55.8932 H       1  ZINC000590699876    0.0700
     56 H56       -14.5846   -0.4784   54.2602 H       1  ZINC000590699876    0.0600
     57 H57       -11.8610   -1.6969   54.9057 H       1  ZINC000590699876    0.0700
     58 H58       -13.2708   -2.5918   54.2873 H       1  ZINC000590699876    0.0700
     59 H59       -11.7448   -3.2318   52.3725 H       1  ZINC000590699876    0.0400
     60 H60       -11.1292   -1.9731   51.2748 H       1  ZINC000590699876    0.0700
     61 H61       -10.4364   -2.1488   52.9050 H       1  ZINC000590699876    0.0700
     62 H62        -9.4028    3.2475   50.3109 H       1  ZINC000590699876    0.1100
     63 H63        -8.4411    3.8577   51.6795 H       1  ZINC000590699876    0.0300
     64 H64        -7.0606    3.9353   49.6715 H       1  ZINC000590699876    0.0900
     65 H65        -7.4171    2.2243   49.3171 H       1  ZINC000590699876    0.0800
@<TRIPOS>BOND
     1     1     2    1
     2     1    33    1
     3     1    34    1
     4     1    35    1
     5     2     3    2
     6     2     4   am
     7     4     5    1
     8     4    36    1
     9     5     6    1
    10     5    37    1
    11     5    38    1
    12     6     7    2
    13     6     8   am
    14     8    12    1
    15     8     9    1
    16     9    10    1
    17     9    39    1
    18     9    40    1
    19    10    11    1
    20    10    41    1
    21    10    42    1
    22    11    12    1
    23    11    43    1
    24    11    44    1
    25    12    13    1
    26    12    14    1
    27    14    15    2
    28    14    16   am
    29    16    32    1
    30    16    17    1
    31    17    18    1
    32    17    45    1
    33    17    46    1
    34    18    19    1
    35    18    47    1
    36    18    48    1
    37    19    20    1
    38    19    31    1
    39    20    21    1
    40    20    49    1
    41    20    50    1
    42    21    22    2
    43    21    23   am
    44    23    28    1
    45    23    24    1
    46    24    25    1
    47    24    51    1
    48    24    52    1
    49    25    26    1
    50    25    53    1
    51    25    54    1
    52    26    27    1
    53    26    55    1
    54    26    56    1
    55    27    28    1
    56    27    57    1
    57    27    58    1
    58    28    29    1
    59    28    30    1
    60    30    59    1
    61    30    60    1
    62    30    61    1
    63    31    32    1
    64    31    62    1
    65    31    63    1
    66    32    64    1
    67    32    65    1
@<TRIPOS>SUBSTRUCTURE
     1 ZINC000590699876        1 TEMP              0 ****  ****    0 ROOT


##########                                Name:    ZINC000746432885
##########                DOCK_Rotatable_Bonds:                  11
##########                         Heavy_Atoms:                  31
##########                    Molecular_Weight:              419.44
##########                DOCK_Rotatable_Bonds:                  11
##########                       Formal_Charge:           0.0199995
##########                     HBond_Acceptors:                   9
##########                        HBond_Donors:                   2
##########                         Heavy_Atoms:                  31
##########                          Grid_Score:          -34.329536
##########                     Grid_vdw_energy:          -33.092209
##########                      Grid_es_energy:           -1.237326
##########           Internal_energy_repulsive:           14.744658

@<TRIPOS>MOLECULE
ZINC000746432885
 52 54 1 0 0
SMALL
USER_CHARGES


@<TRIPOS>ATOM
      1 C1        -16.1602   -0.7684   59.2289 C.3     1  ZINC000746432885    0.0300
      2 O2        -15.5737   -2.0234   59.5798 O.3     1  ZINC000746432885   -0.3200
      3 C3        -14.9605   -2.7175   58.5853 C.ar    1  ZINC000746432885    0.1300
      4 C4        -15.4760   -3.9362   58.1686 C.ar    1  ZINC000746432885   -0.2000
      5 C5        -14.8509   -4.6398   57.1575 C.ar    1  ZINC000746432885   -0.0800
      6 C6        -13.7120   -4.1308   56.5612 C.ar    1  ZINC000746432885   -0.1400
      7 C7        -13.1963   -2.9164   56.9747 C.ar    1  ZINC000746432885   -0.0600
      8 C8        -11.9551   -2.3641   56.3223 C.3     1  ZINC000746432885    0.2300
      9 N9        -12.3147   -1.7164   55.0583 N.am    1  ZINC000746432885   -0.6900
     10 C10       -11.5806   -1.9450   53.9514 C.2     1  ZINC000746432885    0.5200
     11 O11       -10.6208   -2.6860   54.0020 O.2     1  ZINC000746432885   -0.5100
     12 C12       -11.9482   -1.2863   52.6627 C.2     1  ZINC000746432885    0.5100
     13 O13       -11.6213   -1.7911   51.6081 O.2     1  ZINC000746432885   -0.5100
     14 N14       -12.6429   -0.1314   52.6702 N.am    1  ZINC000746432885   -0.6100
     15 C15       -12.9902    0.4874   51.4578 C.2     1  ZINC000746432885    0.0000
     16 C16       -13.6971   -0.0770   50.4443 C.2     1  ZINC000746432885    0.0400
     17 N17       -13.8158    0.8463   49.4635 N.pl3   1  ZINC000746432885   -0.3800
     18 C18       -14.5059    0.6600   48.1848 C.3     1  ZINC000746432885    0.2500
     19 C19       -14.4119   -0.7514   47.7774 C.1     1  ZINC000746432885    0.1900
     20 N20       -14.3395   -1.8405   47.4629 N.1     1  ZINC000746432885   -0.3900
     21 N21       -13.1637    2.0120   49.8848 N.2     1  ZINC000746432885   -0.2800
     22 C22       -12.6740    1.8014   51.0796 C.2     1  ZINC000746432885    0.0700
     23 C23       -11.3126   -1.3549   57.2388 C.ar    1  ZINC000746432885   -0.0500
     24 C24       -11.6736   -0.0226   57.1607 C.ar    1  ZINC000746432885   -0.1500
     25 C25       -11.0863    0.9056   58.0004 C.ar    1  ZINC000746432885   -0.0700
     26 C26       -10.1368    0.5037   58.9199 C.ar    1  ZINC000746432885   -0.2000
     27 C27        -9.7728   -0.8325   59.0002 C.ar    1  ZINC000746432885    0.1300
     28 O28        -8.8390   -1.2305   59.9038 O.3     1  ZINC000746432885   -0.3200
     29 C29        -9.0739   -0.8907   61.2718 C.3     1  ZINC000746432885    0.0300
     30 C30       -10.3674   -1.7628   58.1601 C.ar    1  ZINC000746432885   -0.1300
     31 C31       -13.8213   -2.2059   57.9812 C.ar    1  ZINC000746432885   -0.1300
     32 H32       -16.9239   -0.9246   58.4670 H       1  ZINC000746432885    0.0600
     33 H33       -16.6148   -0.3200   60.1123 H       1  ZINC000746432885    0.1000
     34 H34       -15.3894   -0.1032   58.8396 H       1  ZINC000746432885    0.0600
     35 H35       -16.3652   -4.3346   58.6345 H       1  ZINC000746432885    0.1300
     36 H36       -15.2518   -5.5886   56.8326 H       1  ZINC000746432885    0.1300
     37 H37       -13.2243   -4.6827   55.7714 H       1  ZINC000746432885    0.1200
     38 H38       -11.2546   -3.1763   56.1281 H       1  ZINC000746432885    0.1200
     39 H39       -13.0811   -1.1232   55.0181 H       1  ZINC000746432885    0.4200
     40 H40       -12.9031    0.2725   53.5129 H       1  ZINC000746432885    0.4200
     41 H41       -14.0926   -1.0819   50.4253 H       1  ZINC000746432885    0.1900
     42 H42       -15.5543    0.9376   48.2939 H       1  ZINC000746432885    0.1300
     43 H43       -14.0407    1.2890   47.4257 H       1  ZINC000746432885    0.1500
     44 H44       -12.1169    2.5136   51.6701 H       1  ZINC000746432885    0.2100
     45 H45       -12.4154    0.2937   56.4423 H       1  ZINC000746432885    0.1200
     46 H46       -11.3698    1.9459   57.9372 H       1  ZINC000746432885    0.1300
     47 H47        -9.6781    1.2292   59.5753 H       1  ZINC000746432885    0.1300
     48 H48        -8.2551   -1.2666   61.8853 H       1  ZINC000746432885    0.1000
     49 H49        -9.1351    0.1929   61.3717 H       1  ZINC000746432885    0.0600
     50 H50       -10.0109   -1.3395   61.6018 H       1  ZINC000746432885    0.0600
     51 H51       -10.0858   -2.8036   58.2207 H       1  ZINC000746432885    0.1400
     52 H52       -13.4181   -1.2574   58.3039 H       1  ZINC000746432885    0.1300
@<TRIPOS>BOND
     1     1     2    1
     2     1    32    1
     3     1    33    1
     4     1    34    1
     5     2     3    1
     6     3    31   ar
     7     3     4   ar
     8     4     5   ar
     9     4    35    1
    10     5     6   ar
    11     5    36    1
    12     6     7   ar
    13     6    37    1
    14     7     8    1
    15     7    31   ar
    16     8     9    1
    17     8    23    1
    18     8    38    1
    19     9    10   am
    20     9    39    1
    21    10    11    2
    22    10    12    1
    23    12    13    2
    24    12    14   am
    25    14    15    1
    26    14    40    1
    27    15    22    1
    28    15    16    2
    29    16    17    1
    30    16    41    1
    31    17    18    1
    32    17    21    1
    33    18    19    1
    34    18    42    1
    35    18    43    1
    36    19    20    3
    37    21    22    2
    38    22    44    1
    39    23    30   ar
    40    23    24   ar
    41    24    25   ar
    42    24    45    1
    43    25    26   ar
    44    25    46    1
    45    26    27   ar
    46    26    47    1
    47    27    28    1
    48    27    30   ar
    49    28    29    1
    50    29    48    1
    51    29    49    1
    52    29    50    1
    53    30    51    1
    54    31    52    1
@<TRIPOS>SUBSTRUCTURE
     1 ZINC000746432885        1 TEMP              0 ****  ****    0 ROOT


##########                                Name:    ZINC000991934963
##########                DOCK_Rotatable_Bonds:                   8
##########                         Heavy_Atoms:                  27
##########                    Molecular_Weight:             370.495
##########                DOCK_Rotatable_Bonds:                   8
##########                       Formal_Charge:          -0.0499997
##########                     HBond_Acceptors:                   6
##########                        HBond_Donors:                   1
##########                         Heavy_Atoms:                  27
##########                          Grid_Score:          -34.280228
##########                     Grid_vdw_energy:          -33.953526
##########                      Grid_es_energy:           -0.326702
##########           Internal_energy_repulsive:           14.301365

@<TRIPOS>MOLECULE
ZINC000991934963
 57 61 1 0 0
SMALL
USER_CHARGES


@<TRIPOS>ATOM
      1 C1         -5.6624    0.7479   51.5802 C.3     1  ZINC000991934963    0.0400
      2 O2         -6.6826   -0.2384   51.7490 O.3     1  ZINC000991934963   -0.2900
      3 C3         -7.9534    0.2091   51.8895 C.ar    1  ZINC000991934963    0.5000
      4 N4         -8.1901    1.5094   51.8287 N.ar    1  ZINC000991934963   -0.5700
      5 C5         -9.4193    1.9804   51.9619 C.ar    1  ZINC000991934963    0.1900
      6 C6        -10.4640    1.0934   52.1670 C.ar    1  ZINC000991934963   -0.2700
      7 C7        -10.1798   -0.2620   52.2253 C.ar    1  ZINC000991934963    0.2200
      8 C8        -11.2833   -1.2641   52.4466 C.3     1  ZINC000991934963    0.1000
      9 N9        -11.3132   -1.6548   53.8624 N.3     1  ZINC000991934963   -0.4900
     10 C10       -11.6987   -3.0936   54.0139 C.3     1  ZINC000991934963    0.0400
     11 C11       -12.8836   -3.1308   55.0296 C.3     1  ZINC000991934963   -0.1400
     12 C12       -12.6565   -1.8324   55.8011 C.3     1  ZINC000991934963    0.1700
     13 N13       -11.5674   -1.9458   56.7743 N.am    1  ZINC000991934963   -0.7000
     14 C14       -11.7049   -2.7471   57.8492 C.2     1  ZINC000991934963    0.5200
     15 O15       -12.7308   -3.3733   58.0116 O.2     1  ZINC000991934963   -0.5300
     16 C16       -10.5838   -2.8650   58.8494 C.3     1  ZINC000991934963   -0.1100
     17 C17       -10.0079   -1.4768   59.1361 C.3     1  ZINC000991934963   -0.1300
     18 H18       -10.2369   -0.7107   58.3951 H       1  ZINC000991934963    0.1200
     19 C19        -8.6446   -1.4064   59.8269 C.3     1  ZINC000991934963   -0.1700
     20 C20        -9.9142   -1.0391   60.5991 C.3     1  ZINC000991934963   -0.1200
     21 H21       -10.2625   -1.7401   61.3575 H       1  ZINC000991934963    0.1000
     22 C22       -10.1483    0.4405   60.9108 C.3     1  ZINC000991934963   -0.1200
     23 C23       -11.3533    1.1184   60.2557 C.3     1  ZINC000991934963   -0.1800
     24 C24       -11.3748    0.7997   61.7519 C.3     1  ZINC000991934963   -0.1800
     25 C25       -13.8526   -1.0558   56.3411 C.3     1  ZINC000991934963   -0.1200
     26 C26       -13.3498    0.4202   56.2793 C.3     1  ZINC000991934963   -0.1200
     27 C27       -12.2632    0.4543   55.1620 C.3     1  ZINC000991934963   -0.1000
     28 C28       -12.2994   -0.9160   54.5747 C.3     1  ZINC000991934963    0.0500
     29 H29       -13.1975   -0.9549   53.9583 H       1  ZINC000991934963    0.0400
     30 N30        -8.9285   -0.6653   52.0788 N.ar    1  ZINC000991934963   -0.5000
     31 H31        -5.6465    1.4066   52.4485 H       1  ZINC000991934963    0.0600
     32 H32        -4.6947    0.2562   51.4795 H       1  ZINC000991934963    0.1100
     33 H33        -5.8676    1.3332   50.6838 H       1  ZINC000991934963    0.0600
     34 H34        -9.6062    3.0429   51.9117 H       1  ZINC000991934963    0.1700
     35 H35       -11.4772    1.4503   52.2794 H       1  ZINC000991934963    0.1500
     36 H36       -12.2395   -0.8181   52.1725 H       1  ZINC000991934963    0.1000
     37 H37       -11.1033   -2.1449   51.8304 H       1  ZINC000991934963    0.0600
     38 H38       -12.0172   -3.4983   53.0532 H       1  ZINC000991934963    0.0600
     39 H39       -10.8566   -3.6674   54.4009 H       1  ZINC000991934963    0.0800
     40 H40       -13.8431   -3.1168   54.5128 H       1  ZINC000991934963    0.0800
     41 H41       -12.8079   -3.9961   55.6882 H       1  ZINC000991934963    0.0900
     42 H42       -10.7473   -1.4440   56.6451 H       1  ZINC000991934963    0.4000
     43 H43       -10.9659   -3.2978   59.7740 H       1  ZINC000991934963    0.1000
     44 H44        -9.8013   -3.5064   58.4443 H       1  ZINC000991934963    0.0900
     45 H45        -8.1580   -2.3490   60.0772 H       1  ZINC000991934963    0.0900
     46 H46        -7.9768   -0.5938   59.5408 H       1  ZINC000991934963    0.1000
     47 H47        -9.2484    1.0393   61.0516 H       1  ZINC000991934963    0.1000
     48 H48       -11.2464    2.1636   59.9652 H       1  ZINC000991934963    0.0900
     49 H49       -11.9793    0.5103   59.6026 H       1  ZINC000991934963    0.0900
     50 H50       -12.0149   -0.0179   62.0833 H       1  ZINC000991934963    0.0900
     51 H51       -11.2820    1.6352   62.4459 H       1  ZINC000991934963    0.0900
     52 H52       -14.7251   -1.1949   55.7027 H       1  ZINC000991934963    0.0800
     53 H53       -14.0724   -1.3475   57.3681 H       1  ZINC000991934963    0.0800
     54 H54       -14.1729    1.0873   56.0234 H       1  ZINC000991934963    0.0700
     55 H55       -12.9144    0.7092   57.2358 H       1  ZINC000991934963    0.0700
     56 H56       -12.5152    1.1994   54.4074 H       1  ZINC000991934963    0.0700
     57 H57       -11.2822    0.6602   55.5900 H       1  ZINC000991934963    0.0700
@<TRIPOS>BOND
     1     1     2    1
     2     1    31    1
     3     1    32    1
     4     1    33    1
     5     2     3    1
     6     3    30   ar
     7     3     4   ar
     8     4     5   ar
     9     5     6   ar
    10     5    34    1
    11     6     7   ar
    12     6    35    1
    13     7     8    1
    14     7    30   ar
    15     8     9    1
    16     8    36    1
    17     8    37    1
    18     9    28    1
    19     9    10    1
    20    10    11    1
    21    10    38    1
    22    10    39    1
    23    11    12    1
    24    11    40    1
    25    11    41    1
    26    12    28    1
    27    12    13    1
    28    12    25    1
    29    13    14   am
    30    13    42    1
    31    14    15    2
    32    14    16    1
    33    16    17    1
    34    16    43    1
    35    16    44    1
    36    17    18    1
    37    17    20    1
    38    17    19    1
    39    19    20    1
    40    19    45    1
    41    19    46    1
    42    20    21    1
    43    20    22    1
    44    22    24    1
    45    22    23    1
    46    22    47    1
    47    23    24    1
    48    23    48    1
    49    23    49    1
    50    24    50    1
    51    24    51    1
    52    25    26    1
    53    25    52    1
    54    25    53    1
    55    26    27    1
    56    26    54    1
    57    26    55    1
    58    27    28    1
    59    27    56    1
    60    27    57    1
    61    28    29    1
@<TRIPOS>SUBSTRUCTURE
     1 ZINC000991934963        1 TEMP              0 ****  ****    0 ROOT


##########                                Name:    ZINC000062291520
##########                DOCK_Rotatable_Bonds:                  10
##########                         Heavy_Atoms:                  29
##########                    Molecular_Weight:             398.502
##########                DOCK_Rotatable_Bonds:                  10
##########                       Formal_Charge:          -0.0100006
##########                     HBond_Acceptors:                   6
##########                        HBond_Donors:                   1
##########                         Heavy_Atoms:                  29
##########                          Grid_Score:          -34.265545
##########                     Grid_vdw_energy:          -34.309525
##########                      Grid_es_energy:            0.043980
##########           Internal_energy_repulsive:           16.679863

@<TRIPOS>MOLECULE
ZINC000062291520
 59 61 1 0 0
SMALL
USER_CHARGES


@<TRIPOS>ATOM
      1 C1          2.9237    0.8946   49.1336 C.3     1  ZINC000062291520    0.0300
      2 O2          1.6106    1.2869   49.5389 O.3     1  ZINC000062291520   -0.3100
      3 C3          1.4951    1.9011   50.7467 C.ar    1  ZINC000062291520    0.1000
      4 C4          2.6233    2.1438   51.5128 C.ar    1  ZINC000062291520   -0.1700
      5 C5          2.5033    2.7634   52.7433 C.ar    1  ZINC000062291520   -0.1200
      6 C6          1.2599    3.1470   53.2090 C.ar    1  ZINC000062291520   -0.1200
      7 C7          0.1303    2.9134   52.4463 C.ar    1  ZINC000062291520   -0.1700
      8 C8          0.2435    2.2931   51.2129 C.ar    1  ZINC000062291520    0.1000
      9 O9         -0.8665    2.0627   50.4616 O.3     1  ZINC000062291520   -0.3100
     10 C10        -2.1087    2.5502   50.9728 C.3     1  ZINC000062291520    0.0700
     11 C11        -3.2257    2.2487   49.9717 C.3     1  ZINC000062291520   -0.1400
     12 C12        -4.4952    2.9288   50.4157 C.2     1  ZINC000062291520    0.5200
     13 O13        -4.4415    3.8987   51.1417 O.2     1  ZINC000062291520   -0.5400
     14 N14        -5.6900    2.4589   50.0059 N.am    1  ZINC000062291520   -0.7200
     15 C15        -6.9241    3.1211   50.4361 C.3     1  ZINC000062291520    0.1600
     16 C16        -7.6821    2.2133   51.3701 C.ar    1  ZINC000062291520   -0.1100
     17 C17        -7.6843    0.8478   51.1561 C.ar    1  ZINC000062291520   -0.1000
     18 C18        -8.3793    0.0149   52.0133 C.ar    1  ZINC000062291520   -0.1200
     19 C19        -9.0720    0.5477   53.0840 C.ar    1  ZINC000062291520   -0.0900
     20 C20        -9.0702    1.9137   53.2978 C.ar    1  ZINC000062291520   -0.0800
     21 C21        -9.8258    2.4946   54.4651 C.3     1  ZINC000062291520    0.0900
     22 N22        -9.0130    2.3754   55.6829 N.3     1  ZINC000062291520   -0.5300
     23 C23        -8.7784    3.6933   56.2908 C.3     1  ZINC000062291520    0.0100
     24 C24        -7.8802    3.5297   57.5198 C.3     1  ZINC000062291520    0.0600
     25 O25        -8.4914    2.6136   58.4321 O.3     1  ZINC000062291520   -0.3800
     26 C26        -8.7337    1.3197   57.8731 C.3     1  ZINC000062291520    0.0900
     27 H27        -7.7870    0.8685   57.5761 H       1  ZINC000062291520    0.0700
     28 C28        -9.4176    0.4328   58.9154 C.3     1  ZINC000062291520   -0.1500
     29 C29        -9.6405    1.4609   56.6477 C.3     1  ZINC000062291520    0.0200
     30 C30        -8.3706    2.7458   52.4442 C.ar    1  ZINC000062291520   -0.0900
     31 H31         3.5645    1.7745   49.0772 H       1  ZINC000062291520    0.0500
     32 H32         3.3335    0.1925   49.8597 H       1  ZINC000062291520    0.0600
     33 H33         2.8745    0.4177   48.1547 H       1  ZINC000062291520    0.1000
     34 H34         3.5961    1.8450   51.1513 H       1  ZINC000062291520    0.1400
     35 H35         3.3833    2.9483   53.3416 H       1  ZINC000062291520    0.1300
     36 H36         1.1703    3.6307   54.1704 H       1  ZINC000062291520    0.1300
     37 H37        -0.8402    3.2147   52.8121 H       1  ZINC000062291520    0.1400
     38 H38        -2.0403    3.6270   51.1275 H       1  ZINC000062291520    0.0700
     39 H39        -2.3287    2.0601   51.9212 H       1  ZINC000062291520    0.0700
     40 H40        -3.3884    1.1721   49.9223 H       1  ZINC000062291520    0.1100
     41 H41        -2.9406    2.6187   48.9868 H       1  ZINC000062291520    0.1100
     42 H42        -5.7331    1.6825   49.4262 H       1  ZINC000062291520    0.4000
     43 H43        -6.6776    4.0492   50.9519 H       1  ZINC000062291520    0.0800
     44 H44        -7.5405    3.3424   49.5647 H       1  ZINC000062291520    0.0800
     45 H45        -7.1426    0.4315   50.3197 H       1  ZINC000062291520    0.1200
     46 H46        -8.3806   -1.0521   51.8463 H       1  ZINC000062291520    0.1300
     47 H47        -9.6149   -0.1030   53.7536 H       1  ZINC000062291520    0.1200
     48 H48       -10.0396    3.5460   54.2724 H       1  ZINC000062291520    0.0500
     49 H49       -10.7617    1.9521   54.5983 H       1  ZINC000062291520    0.0900
     50 H50        -8.2901    4.3462   55.5673 H       1  ZINC000062291520    0.0900
     51 H51        -9.7307    4.1304   56.5908 H       1  ZINC000062291520    0.0400
     52 H52        -6.9087    3.1431   57.2117 H       1  ZINC000062291520    0.0600
     53 H53        -7.7502    4.4962   58.0067 H       1  ZINC000062291520    0.1000
     54 H54       -10.3649    0.8838   59.2109 H       1  ZINC000062291520    0.0600
     55 H55        -9.6020   -0.5531   58.4888 H       1  ZINC000062291520    0.0700
     56 H56        -8.7731    0.3359   59.7892 H       1  ZINC000062291520    0.0700
     57 H57       -10.6066    1.8620   56.9542 H       1  ZINC000062291520    0.0400
     58 H58        -9.7815    0.4842   56.1848 H       1  ZINC000062291520    0.0900
     59 H59        -8.3653    3.8123   52.6140 H       1  ZINC000062291520    0.1200
@<TRIPOS>BOND
     1     1     2    1
     2     1    31    1
     3     1    32    1
     4     1    33    1
     5     2     3    1
     6     3     8   ar
     7     3     4   ar
     8     4     5   ar
     9     4    34    1
    10     5     6   ar
    11     5    35    1
    12     6     7   ar
    13     6    36    1
    14     7     8   ar
    15     7    37    1
    16     8     9    1
    17     9    10    1
    18    10    11    1
    19    10    38    1
    20    10    39    1
    21    11    12    1
    22    11    40    1
    23    11    41    1
    24    12    13    2
    25    12    14   am
    26    14    15    1
    27    14    42    1
    28    15    16    1
    29    15    43    1
    30    15    44    1
    31    16    30   ar
    32    16    17   ar
    33    17    18   ar
    34    17    45    1
    35    18    19   ar
    36    18    46    1
    37    19    20   ar
    38    19    47    1
    39    20    21    1
    40    20    30   ar
    41    21    22    1
    42    21    48    1
    43    21    49    1
    44    22    29    1
    45    22    23    1
    46    23    24    1
    47    23    50    1
    48    23    51    1
    49    24    25    1
    50    24    52    1
    51    24    53    1
    52    25    26    1
    53    26    27    1
    54    26    28    1
    55    26    29    1
    56    28    54    1
    57    28    55    1
    58    28    56    1
    59    29    57    1
    60    29    58    1
    61    30    59    1
@<TRIPOS>SUBSTRUCTURE
     1 ZINC000062291520        1 TEMP              0 ****  ****    0 ROOT


##########                                Name:    ZINC001083519372
##########                DOCK_Rotatable_Bonds:                   7
##########                         Heavy_Atoms:                  27
##########                    Molecular_Weight:             370.411
##########                DOCK_Rotatable_Bonds:                   7
##########                       Formal_Charge:           0.0399996
##########                     HBond_Acceptors:                   9
##########                        HBond_Donors:                   2
##########                         Heavy_Atoms:                  27
##########                          Grid_Score:          -34.216408
##########                     Grid_vdw_energy:          -33.053917
##########                      Grid_es_energy:           -1.162491
##########           Internal_energy_repulsive:           10.232902

@<TRIPOS>MOLECULE
ZINC001083519372
 49 52 1 0 0
SMALL
USER_CHARGES


@<TRIPOS>ATOM
      1 C1         -0.0104    4.4545   50.1791 C.3     1  ZINC001083519372   -0.1500
      2 C2         -0.6861    3.2363   50.8117 C.3     1  ZINC001083519372   -0.0100
      3 C3          0.3596    2.1492   51.0685 C.3     1  ZINC001083519372   -0.1500
      4 C4         -1.3247    3.6372   52.1165 C.2     1  ZINC001083519372   -0.0100
      5 C5         -2.5896    4.0543   52.2909 C.2     1  ZINC001083519372   -0.0100
      6 C6         -3.6321    4.2072   51.2134 C.3     1  ZINC001083519372    0.1300
      7 N7         -4.3218    2.9256   51.0141 N.3     1  ZINC001083519372   -0.5000
      8 C8         -5.0810    2.5350   52.2295 C.3     1  ZINC001083519372    0.0300
      9 C9         -6.1157    1.5164   51.6890 C.3     1  ZINC001083519372    0.1500
     10 H10        -5.6631    0.5317   51.5723 H       1  ZINC001083519372    0.1200
     11 N11        -7.2838    1.4468   52.5706 N.am    1  ZINC001083519372   -0.6900
     12 C12        -8.1511    0.4211   52.4603 C.2     1  ZINC001083519372    0.5600
     13 O13        -7.9634   -0.4473   51.6302 O.2     1  ZINC001083519372   -0.5100
     14 C14        -9.3280    0.3518   53.3467 C.2     1  ZINC001083519372    0.1400
     15 C15        -9.5598    1.3303   54.2755 C.2     1  ZINC001083519372   -0.1500
     16 C16       -10.6867    1.2360   55.1030 C.2     1  ZINC001083519372    0.1800
     17 N17       -11.5113    0.2225   54.9906 N.2     1  ZINC001083519372   -0.4400
     18 C18       -11.3024   -0.7432   54.0898 C.2     1  ZINC001083519372    0.2500
     19 C19       -12.0049   -1.9005   53.7716 C.2     1  ZINC001083519372   -0.2500
     20 C20       -11.3249   -2.5365   52.7462 C.2     1  ZINC001083519372    0.1000
     21 N21       -10.2608   -1.8295   52.4339 N.2     1  ZINC001083519372   -0.3100
     22 N22       -10.2164   -0.6950   53.2514 N.pl3   1  ZINC001083519372   -0.3100
     23 C23        -6.4984    2.1092   50.3134 C.3     1  ZINC001083519372    0.0900
     24 H24        -6.6147    1.3133   49.5777 H       1  ZINC001083519372    0.0800
     25 O25        -7.7054    2.8669   50.4182 O.3     1  ZINC001083519372   -0.5600
     26 C26        -5.3216    3.0249   49.9287 C.3     1  ZINC001083519372    0.0100
     27 N27        -2.7579    4.3108   53.6002 N.2     1  ZINC001083519372   -0.4800
     28 C28        -1.6402    4.0634   54.2214 C.2     1  ZINC001083519372    0.1700
     29 O29        -0.7360    3.6389   53.3287 O.3     1  ZINC001083519372   -0.2000
     30 H30        -0.7552    5.2290   49.9963 H       1  ZINC001083519372    0.0600
     31 H31         0.7539    4.8380   50.8552 H       1  ZINC001083519372    0.0600
     32 H32         0.4515    4.1646   49.2354 H       1  ZINC001083519372    0.0700
     33 H33        -1.4503    2.8529   50.1359 H       1  ZINC001083519372    0.1000
     34 H34         1.1239    2.5326   51.7444 H       1  ZINC001083519372    0.0600
     35 H35        -0.1218    1.2813   51.5191 H       1  ZINC001083519372    0.0600
     36 H36         0.8215    1.8593   50.1247 H       1  ZINC001083519372    0.0700
     37 H37        -4.3550    4.9662   51.5122 H       1  ZINC001083519372    0.0900
     38 H38        -3.1512    4.5096   50.2831 H       1  ZINC001083519372    0.0600
     39 H39        -4.4226    2.0641   52.9595 H       1  ZINC001083519372    0.1000
     40 H40        -5.5828    3.3996   52.6639 H       1  ZINC001083519372    0.0600
     41 H41        -7.4330    2.1389   53.2337 H       1  ZINC001083519372    0.4300
     42 H42        -8.8816    2.1654   54.3696 H       1  ZINC001083519372    0.1800
     43 H43       -10.8773    2.0032   55.8389 H       1  ZINC001083519372    0.1900
     44 H44       -12.9162   -2.2420   54.2400 H       1  ZINC001083519372    0.1700
     45 H45       -11.6209   -3.4638   52.2785 H       1  ZINC001083519372    0.2000
     46 H46        -7.9380    3.3494   49.6131 H       1  ZINC001083519372    0.3900
     47 H47        -5.6673    4.0544   49.8354 H       1  ZINC001083519372    0.0700
     48 H48        -4.8832    2.6909   48.9883 H       1  ZINC001083519372    0.0900
     49 H49        -1.4714    4.1776   55.2820 H       1  ZINC001083519372    0.2500
@<TRIPOS>BOND
     1     1     2    1
     2     1    30    1
     3     1    31    1
     4     1    32    1
     5     2     3    1
     6     2     4    1
     7     2    33    1
     8     3    34    1
     9     3    35    1
    10     3    36    1
    11     4    29    1
    12     4     5    2
    13     5     6    1
    14     5    27    1
    15     6     7    1
    16     6    37    1
    17     6    38    1
    18     7    26    1
    19     7     8    1
    20     8     9    1
    21     8    39    1
    22     8    40    1
    23     9    10    1
    24     9    11    1
    25     9    23    1
    26    11    12   am
    27    11    41    1
    28    12    13    2
    29    12    14    1
    30    14    22    1
    31    14    15    2
    32    15    16    1
    33    15    42    1
    34    16    17    2
    35    16    43    1
    36    17    18    1
    37    18    22    1
    38    18    19    2
    39    19    20    1
    40    19    44    1
    41    20    21    2
    42    20    45    1
    43    21    22    1
    44    23    24    1
    45    23    25    1
    46    23    26    1
    47    25    46    1
    48    26    47    1
    49    26    48    1
    50    27    28    2
    51    28    29    1
    52    28    49    1
@<TRIPOS>SUBSTRUCTURE
     1 ZINC001083519372        1 TEMP              0 ****  ****    0 ROOT


##########                                Name:    ZINC000523863446
##########                DOCK_Rotatable_Bonds:                  10
##########                         Heavy_Atoms:                  29
##########                    Molecular_Weight:             396.533
##########                DOCK_Rotatable_Bonds:                  10
##########                       Formal_Charge:          -0.0200008
##########                     HBond_Acceptors:                   6
##########                        HBond_Donors:                   1
##########                         Heavy_Atoms:                  29
##########                          Grid_Score:          -34.215458
##########                     Grid_vdw_energy:          -31.715008
##########                      Grid_es_energy:           -2.500450
##########           Internal_energy_repulsive:           22.594923

@<TRIPOS>MOLECULE
ZINC000523863446
 61 63 1 0 0
SMALL
USER_CHARGES


@<TRIPOS>ATOM
      1 C1        -10.0852    2.9461   57.4023 C.3     1  ZINC000523863446   -0.1700
      2 C2         -8.6636    2.7033   57.9132 C.3     1  ZINC000523863446    0.1500
      3 H3         -8.4735    3.3419   58.7759 H       1  ZINC000523863446    0.1300
      4 C4         -8.5142    1.2586   58.3152 C.2     1  ZINC000523863446    0.5100
      5 O5         -7.8808    0.4969   57.6155 O.2     1  ZINC000523863446   -0.5100
      6 N6         -9.0846    0.8130   59.4520 N.am    1  ZINC000523863446   -0.6000
      7 C7         -9.8513    1.7325   60.2962 C.3     1  ZINC000523863446    0.0700
      8 C8         -8.9378   -0.5912   59.8436 C.3     1  ZINC000523863446    0.1000
      9 C9        -10.0104   -1.4134   59.1768 C.2     1  ZINC000523863446    0.5000
     10 O10        -9.8353   -2.5981   58.9853 O.2     1  ZINC000523863446   -0.5200
     11 N11       -11.1642   -0.8320   58.7931 N.am    1  ZINC000523863446   -0.7200
     12 C12       -12.2076   -1.6316   58.1464 C.3     1  ZINC000523863446    0.1900
     13 H13       -11.7923   -2.5917   57.8402 H       1  ZINC000523863446    0.1000
     14 C14       -12.7319   -0.8873   56.9167 C.3     1  ZINC000523863446   -0.1200
     15 C15       -11.9124   -1.2897   55.6890 C.3     1  ZINC000523863446   -0.0900
     16 C16       -12.6081   -2.4463   54.9684 C.3     1  ZINC000523863446   -0.1200
     17 C17       -11.7886   -2.8489   53.7406 C.3     1  ZINC000523863446   -0.1200
     18 C18       -11.6705   -1.6542   52.7921 C.3     1  ZINC000523863446   -0.1200
     19 C19       -10.9749   -0.4976   53.5129 C.3     1  ZINC000523863446   -0.1200
     20 C20       -11.7944   -0.0950   54.7405 C.3     1  ZINC000523863446   -0.1100
     21 C21       -13.3388   -1.8597   59.1157 C.ar    1  ZINC000523863446   -0.0900
     22 C22       -14.2038   -2.9220   58.9309 C.ar    1  ZINC000523863446   -0.1100
     23 C23       -15.2414   -3.1312   59.8200 C.ar    1  ZINC000523863446   -0.1200
     24 C24       -15.4137   -2.2782   60.8941 C.ar    1  ZINC000523863446   -0.1200
     25 C25       -14.5481   -1.2164   61.0795 C.ar    1  ZINC000523863446   -0.1200
     26 C26       -13.5080   -1.0098   60.1927 C.ar    1  ZINC000523863446   -0.1000
     27 N27        -7.7031    3.0170   56.8525 N.pl3   1  ZINC000523863446   -0.3600
     28 C28        -6.5641    3.7261   56.9972 C.2     1  ZINC000523863446    0.0600
     29 C29        -5.9625    3.7914   55.7868 C.2     1  ZINC000523863446   -0.2700
     30 C30        -6.7612    3.0987   54.8712 C.2     1  ZINC000523863446    0.0500
     31 N31        -7.8018    2.6288   55.5102 N.2     1  ZINC000523863446   -0.2900
     32 H32       -10.2752    2.3075   56.5396 H       1  ZINC000523863446    0.0700
     33 H33       -10.7998    2.7128   58.1915 H       1  ZINC000523863446    0.1000
     34 H34       -10.1933    3.9911   57.1116 H       1  ZINC000523863446    0.0800
     35 H35       -10.8960    1.7262   59.9850 H       1  ZINC000523863446    0.0700
     36 H36        -9.7802    1.4154   61.3367 H       1  ZINC000523863446    0.0800
     37 H37        -9.4482    2.7402   60.1952 H       1  ZINC000523863446    0.0800
     38 H38        -7.9574   -0.9539   59.5348 H       1  ZINC000523863446    0.1100
     39 H39        -9.0333   -0.6784   60.9259 H       1  ZINC000523863446    0.1100
     40 H40       -11.3037    0.1158   58.9450 H       1  ZINC000523863446    0.4000
     41 H41       -13.7787   -1.1446   56.7552 H       1  ZINC000523863446    0.0800
     42 H42       -12.6425    0.1872   57.0769 H       1  ZINC000523863446    0.0700
     43 H43       -10.9172   -1.6038   56.0035 H       1  ZINC000523863446    0.0700
     44 H44       -12.6922   -3.2974   55.6440 H       1  ZINC000523863446    0.0600
     45 H45       -13.6034   -2.1323   54.6538 H       1  ZINC000523863446    0.0600
     46 H46       -10.7933   -3.1629   54.0551 H       1  ZINC000523863446    0.0600
     47 H47       -12.2842   -3.6728   53.2271 H       1  ZINC000523863446    0.0600
     48 H48       -11.0867   -1.9410   51.9175 H       1  ZINC000523863446    0.0600
     49 H49       -12.6658   -1.3402   52.4776 H       1  ZINC000523863446    0.0600
     50 H50        -9.9796   -0.8116   53.8274 H       1  ZINC000523863446    0.0600
     51 H51       -10.8907    0.3535   52.8371 H       1  ZINC000523863446    0.0600
     52 H52       -12.7896    0.2189   54.4260 H       1  ZINC000523863446    0.0600
     53 H53       -11.2987    0.7288   55.2539 H       1  ZINC000523863446    0.0600
     54 H54       -14.0691   -3.5883   58.0918 H       1  ZINC000523863446    0.1200
     55 H55       -15.9176   -3.9607   59.6753 H       1  ZINC000523863446    0.1200
     56 H56       -16.2248   -2.4412   61.5884 H       1  ZINC000523863446    0.1200
     57 H57       -14.6830   -0.5499   61.9184 H       1  ZINC000523863446    0.1200
     58 H58       -12.8317   -0.1802   60.3374 H       1  ZINC000523863446    0.1200
     59 H59        -6.1984    4.1634   57.9144 H       1  ZINC000523863446    0.1700
     60 H60        -5.0306    4.2909   55.5666 H       1  ZINC000523863446    0.1500
     61 H61        -6.5524    2.9695   53.8195 H       1  ZINC000523863446    0.1800
@<TRIPOS>BOND
     1     1     2    1
     2     1    32    1
     3     1    33    1
     4     1    34    1
     5     2     3    1
     6     2     4    1
     7     2    27    1
     8     4     5    2
     9     4     6   am
    10     6     7    1
    11     6     8    1
    12     7    35    1
    13     7    36    1
    14     7    37    1
    15     8     9    1
    16     8    38    1
    17     8    39    1
    18     9    10    2
    19     9    11   am
    20    11    12    1
    21    11    40    1
    22    12    13    1
    23    12    14    1
    24    12    21    1
    25    14    15    1
    26    14    41    1
    27    14    42    1
    28    15    20    1
    29    15    16    1
    30    15    43    1
    31    16    17    1
    32    16    44    1
    33    16    45    1
    34    17    18    1
    35    17    46    1
    36    17    47    1
    37    18    19    1
    38    18    48    1
    39    18    49    1
    40    19    20    1
    41    19    50    1
    42    19    51    1
    43    20    52    1
    44    20    53    1
    45    21    26   ar
    46    21    22   ar
    47    22    23   ar
    48    22    54    1
    49    23    24   ar
    50    23    55    1
    51    24    25   ar
    52    24    56    1
    53    25    26   ar
    54    25    57    1
    55    26    58    1
    56    27    31    1
    57    27    28    1
    58    28    29    2
    59    28    59    1
    60    29    30    1
    61    29    60    1
    62    30    31    2
    63    30    61    1
@<TRIPOS>SUBSTRUCTURE
     1 ZINC000523863446        1 TEMP              0 ****  ****    0 ROOT


##########                                Name:     oleObject17.pdb
##########                DOCK_Rotatable_Bonds:                   8
##########                         Heavy_Atoms:                  29
##########                    Molecular_Weight:             435.393
##########                DOCK_Rotatable_Bonds:                   8
##########                       Formal_Charge:         0.000400059
##########                     HBond_Acceptors:                   6
##########                        HBond_Donors:                   0
##########                         Heavy_Atoms:                  29
##########                          Grid_Score:          -34.170563
##########                     Grid_vdw_energy:          -33.806206
##########                      Grid_es_energy:           -0.364356
##########           Internal_energy_repulsive:           17.897306

@<TRIPOS>MOLECULE
oleObject17.pdb
 57 59 1 0 0
SMALL
NO_CHARGES


@<TRIPOS>ATOM
      1 C          -1.1463    4.4306   50.7849 C.3     1  UNL         0.0391
      2 C          -2.3548    4.1079   51.6663 C.ar    1  UNL        -0.0277
      3 C          -3.2668    3.0646   51.3667 C.ar    1  UNL        -0.0463
      4 C          -4.3746    2.8500   52.2103 C.ar    1  UNL        -0.0590
      5 C          -4.5816    3.6530   53.3412 C.ar    1  UNL        -0.0620
      6 C          -3.6716    4.6731   53.6483 C.ar    1  UNL        -0.0619
      7 C          -2.5631    4.8931   52.8174 C.ar    1  UNL        -0.0572
      8 C          -3.0884    2.1526   50.1579 C.3     1  UNL        -0.0394
      9 N           0.0672    3.6858   51.1839 N.am    1  UNL        -0.3003
     10 C           1.0366    3.3342   50.2449 C.2     1  UNL         0.2175
     11 O           1.0617    3.8910   49.1604 O.2     1  UNL        -0.2772
     12 C           2.2683    2.5538   50.7754 C.3     1  UNL         0.0384
     13 C           3.5624    2.8682   49.9830 C.3     1  UNL        -0.0289
     14 C           3.5029    2.2907   48.5555 C.3     1  UNL        -0.0010
     15 N           3.2711    0.8296   48.5630 N.4     1  UNL        -0.3010
     16 C           2.0915    0.3991   49.3497 C.3     1  UNL        -0.0010
     17 C           2.0573    1.0151   50.7723 C.3     1  UNL        -0.0289
     18 C           3.3466    0.2168   47.2170 C.3     1  UNL         0.0222
     19 C           2.1638    0.5962   46.2960 C.3     1  UNL         0.0661
     20 O           2.4426    0.1043   44.9743 O.3     1  UNL        -0.3432
     21 C           1.6567    0.4102   43.8797 C.ar    1  UNL         0.0937
     22 C           0.2482    0.3263   43.9252 C.ar    1  UNL        -0.0288
     23 C          -0.5167    0.6537   42.7937 C.ar    1  UNL        -0.0408
     24 C           0.1182    1.0634   41.6108 C.ar    1  UNL         0.0422
     25 C           1.5184    1.1456   41.5560 C.ar    1  UNL        -0.0221
     26 C           2.2861    0.8196   42.6866 C.ar    1  UNL         0.0723
     27 CL          4.0329    0.9385   42.5867 Cl      1  UNL        -0.0814
     28 CL         -0.8378    1.4717   40.2022 Cl      1  UNL        -0.0843
     29 C           0.1761    3.3391   52.6128 C.3     1  UNL         0.0031
     30 H          -0.9149    5.5014   50.8080 H       1  UNL         0.0520
     31 H          -1.4034    4.1883   49.7461 H       1  UNL         0.0520
     32 H          -5.0827    2.0563   51.9898 H       1  UNL         0.0626
     33 H          -5.4420    3.4798   53.9816 H       1  UNL         0.0623
     34 H          -3.8253    5.2933   54.5266 H       1  UNL         0.0623
     35 H          -1.8668    5.6895   53.0628 H       1  UNL         0.0626
     36 H          -2.0962    1.6849   50.1570 H       1  UNL         0.0280
     37 H          -3.2059    2.7075   49.2202 H       1  UNL         0.0280
     38 H          -3.8263    1.3409   50.1501 H       1  UNL         0.0280
     39 H           2.4204    2.8596   51.8173 H       1  UNL         0.0402
     40 H           4.4219    2.4301   50.5068 H       1  UNL         0.0288
     41 H           3.7478    3.9464   49.9375 H       1  UNL         0.0288
     42 H           4.4455    2.5170   48.0408 H       1  UNL         0.0431
     43 H           2.6961    2.7955   48.0122 H       1  UNL         0.0431
     44 H           2.0890   -0.6946   49.4403 H       1  UNL         0.0431
     45 H           1.1729    0.6791   48.8221 H       1  UNL         0.0431
     46 H           2.8522    0.5497   51.3693 H       1  UNL         0.0288
     47 H           1.1099    0.7618   51.2652 H       1  UNL         0.0288
     48 H           3.3818   -0.8759   47.3132 H       1  UNL         0.0455
     49 H           4.2798    0.5291   46.7308 H       1  UNL         0.0455
     50 H           2.0501    1.6858   46.2630 H       1  UNL         0.0586
     51 H           1.2350    0.1534   46.6757 H       1  UNL         0.0586
     52 H          -0.2639    0.0085   44.8276 H       1  UNL         0.0651
     53 H          -1.6004    0.5881   42.8349 H       1  UNL         0.0639
     54 H           2.0086    1.4625   40.6398 H       1  UNL         0.0655
     55 H          -0.8176    3.1336   53.0304 H       1  UNL         0.0433
     56 H           0.6301    4.1686   53.1683 H       1  UNL         0.0433
     57 H           0.7908    2.4393   52.7388 H       1  UNL         0.0433
@<TRIPOS>BOND
     1     1     2    1
     2     1     9    1
     3     1    30    1
     4     1    31    1
     5     2     3   ar
     6     2     7   ar
     7     3     4   ar
     8     3     8    1
     9     4     5   ar
    10     4    32    1
    11     5     6   ar
    12     5    33    1
    13     6     7   ar
    14     6    34    1
    15     7    35    1
    16     8    36    1
    17     8    37    1
    18     8    38    1
    19     9    10   am
    20     9    29    1
    21    10    11    2
    22    10    12    1
    23    12    13    1
    24    12    17    1
    25    12    39    1
    26    13    14    1
    27    13    40    1
    28    13    41    1
    29    14    15    1
    30    14    42    1
    31    14    43    1
    32    15    16    1
    33    15    18    1
    34    16    17    1
    35    16    44    1
    36    16    45    1
    37    17    46    1
    38    17    47    1
    39    18    19    1
    40    18    48    1
    41    18    49    1
    42    19    20    1
    43    19    50    1
    44    19    51    1
    45    20    21    1
    46    21    22   ar
    47    21    26   ar
    48    22    23   ar
    49    22    52    1
    50    23    24   ar
    51    23    53    1
    52    24    25   ar
    53    24    28    1
    54    25    26   ar
    55    25    54    1
    56    26    27    1
    57    29    55    1
    58    29    56    1
    59    29    57    1
@<TRIPOS>SUBSTRUCTURE
     1 UNL         1 TEMP              0 ****  ****    0 ROOT


##########                                Name:    ZINC000642096826
##########                DOCK_Rotatable_Bonds:                  12
##########                         Heavy_Atoms:                  25
##########                    Molecular_Weight:             345.485
##########                DOCK_Rotatable_Bonds:                  12
##########                       Formal_Charge:          0.00999919
##########                     HBond_Acceptors:                   5
##########                        HBond_Donors:                   1
##########                         Heavy_Atoms:                  25
##########                          Grid_Score:          -34.123074
##########                     Grid_vdw_energy:          -33.052231
##########                      Grid_es_energy:           -1.070842
##########           Internal_energy_repulsive:           22.578238

@<TRIPOS>MOLECULE
ZINC000642096826
 56 57 1 0 0
SMALL
USER_CHARGES


@<TRIPOS>ATOM
      1 C1         -9.1248   -1.3510   60.5371 C.3     1  ZINC000642096826   -0.1500
      2 C2         -9.5176   -1.0897   59.0816 C.3     1  ZINC000642096826   -0.1400
      3 C3        -10.2414    0.2546   58.9822 C.3     1  ZINC000642096826    0.1200
      4 N4        -10.5963    0.5159   57.5851 N.am    1  ZINC000642096826   -0.6200
      5 C5         -9.7958    1.4488   56.7881 C.3     1  ZINC000642096826    0.1100
      6 C6         -8.4372    1.6579   57.4599 C.3     1  ZINC000642096826   -0.1400
      7 C7         -7.4889    2.3593   56.4853 C.3     1  ZINC000642096826   -0.1500
      8 C8        -11.6591   -0.1021   57.0328 C.2     1  ZINC000642096826    0.5200
      9 O9        -12.3226   -0.8733   57.6929 O.2     1  ZINC000642096826   -0.5200
     10 C10       -12.0231    0.1654   55.5950 C.3     1  ZINC000642096826    0.0400
     11 N11       -11.1049   -0.5672   54.7130 N.3     1  ZINC000642096826   -0.5200
     12 C12       -11.2257   -2.0173   54.9150 C.3     1  ZINC000642096826    0.0100
     13 C13       -11.3305   -0.2112   53.3058 C.3     1  ZINC000642096826    0.0900
     14 C14       -10.0423    0.2838   52.7002 C.ar    1  ZINC000642096826   -0.0500
     15 C15        -9.1239   -0.6219   52.1995 C.ar    1  ZINC000642096826   -0.1000
     16 C16        -7.9425   -0.1754   51.6444 C.ar    1  ZINC000642096826   -0.0600
     17 C17        -7.6750    1.1934   51.5881 C.ar    1  ZINC000642096826   -0.1400
     18 C18        -6.4112    1.6789   50.9941 C.2     1  ZINC000642096826    0.5600
     19 O19        -6.4147    2.1891   49.8908 O.2     1  ZINC000642096826   -0.5300
     20 N20        -5.2551    1.5559   51.6759 N.am    1  ZINC000642096826   -0.7000
     21 C21        -4.0025    2.0355   51.0866 C.3     1  ZINC000642096826    0.0800
     22 C22        -3.7371    3.5419   51.1202 C.3     1  ZINC000642096826   -0.1900
     23 C23        -2.9475    2.6055   52.0369 C.3     1  ZINC000642096826   -0.1900
     24 C24        -8.6058    2.1016   52.0946 C.ar    1  ZINC000642096826   -0.0900
     25 C25        -9.7857    1.6421   52.6424 C.ar    1  ZINC000642096826   -0.1200
     26 H26        -8.4641   -0.5562   60.8835 H       1  ZINC000642096826    0.0600
     27 H27       -10.0212   -1.3743   61.1567 H       1  ZINC000642096826    0.0600
     28 H28        -8.6092   -2.3087   60.6080 H       1  ZINC000642096826    0.0600
     29 H29        -8.6211   -1.0665   58.4620 H       1  ZINC000642096826    0.0600
     30 H30       -10.1782   -1.8845   58.7353 H       1  ZINC000642096826    0.0600
     31 H31       -11.1471    0.2252   59.5878 H       1  ZINC000642096826    0.0800
     32 H32        -9.5871    1.0472   59.3451 H       1  ZINC000642096826    0.0800
     33 H33        -9.6480    1.0391   55.7889 H       1  ZINC000642096826    0.0800
     34 H34       -10.3162    2.4040   56.7157 H       1  ZINC000642096826    0.0800
     35 H35        -8.5631    2.2733   58.3506 H       1  ZINC000642096826    0.0700
     36 H36        -8.0188    0.6917   57.7420 H       1  ZINC000642096826    0.0700
     37 H37        -6.5210    2.5081   56.9639 H       1  ZINC000642096826    0.0600
     38 H38        -7.3630    1.7437   55.5945 H       1  ZINC000642096826    0.0600
     39 H39        -7.9073    3.3254   56.2032 H       1  ZINC000642096826    0.0600
     40 H40       -13.0451   -0.1657   55.4114 H       1  ZINC000642096826    0.0600
     41 H41       -11.9455    1.2338   55.3934 H       1  ZINC000642096826    0.1000
     42 H42       -12.2462   -2.3310   54.6953 H       1  ZINC000642096826    0.0200
     43 H43       -10.5351   -2.5356   54.2498 H       1  ZINC000642096826    0.0700
     44 H44       -10.9854   -2.2612   55.9498 H       1  ZINC000642096826    0.0900
     45 H45       -11.6748   -1.0893   52.7596 H       1  ZINC000642096826    0.0500
     46 H46       -12.0850    0.5731   53.2459 H       1  ZINC000642096826    0.0900
     47 H47        -9.3321   -1.6807   52.2438 H       1  ZINC000642096826    0.1300
     48 H48        -7.2261   -0.8834   51.2546 H       1  ZINC000642096826    0.1400
     49 H49        -5.2525    1.1498   52.5568 H       1  ZINC000642096826    0.4000
     50 H50        -3.6496    1.4812   50.2170 H       1  ZINC000642096826    0.1400
     51 H51        -3.2098    3.9791   50.2724 H       1  ZINC000642096826    0.1000
     52 H52        -4.4947    4.1762   51.5807 H       1  ZINC000642096826    0.1000
     53 H53        -3.1854    2.6237   53.1005 H       1  ZINC000642096826    0.1000
     54 H54        -1.9004    2.4266   51.7921 H       1  ZINC000642096826    0.1100
     55 H55        -8.4046    3.1620   52.0542 H       1  ZINC000642096826    0.1200
     56 H56       -10.5070    2.3439   53.0343 H       1  ZINC000642096826    0.1300
@<TRIPOS>BOND
     1     1     2    1
     2     1    26    1
     3     1    27    1
     4     1    28    1
     5     2     3    1
     6     2    29    1
     7     2    30    1
     8     3     4    1
     9     3    31    1
    10     3    32    1
    11     4     5    1
    12     4     8   am
    13     5     6    1
    14     5    33    1
    15     5    34    1
    16     6     7    1
    17     6    35    1
    18     6    36    1
    19     7    37    1
    20     7    38    1
    21     7    39    1
    22     8     9    2
    23     8    10    1
    24    10    11    1
    25    10    40    1
    26    10    41    1
    27    11    12    1
    28    11    13    1
    29    12    42    1
    30    12    43    1
    31    12    44    1
    32    13    14    1
    33    13    45    1
    34    13    46    1
    35    14    25   ar
    36    14    15   ar
    37    15    16   ar
    38    15    47    1
    39    16    17   ar
    40    16    48    1
    41    17    18    1
    42    17    24   ar
    43    18    19    2
    44    18    20   am
    45    20    21    1
    46    20    49    1
    47    21    23    1
    48    21    22    1
    49    21    50    1
    50    22    23    1
    51    22    51    1
    52    22    52    1
    53    23    53    1
    54    23    54    1
    55    24    25   ar
    56    24    55    1
    57    25    56    1
@<TRIPOS>SUBSTRUCTURE
     1 ZINC000642096826        1 TEMP              0 ****  ****    0 ROOT


##########                                Name:    ZINC000967287417
##########                DOCK_Rotatable_Bonds:                   7
##########                         Heavy_Atoms:                  25
##########                    Molecular_Weight:             347.414
##########                DOCK_Rotatable_Bonds:                   7
##########                       Formal_Charge:          -0.0200002
##########                     HBond_Acceptors:                   7
##########                        HBond_Donors:                   1
##########                         Heavy_Atoms:                  25
##########                          Grid_Score:          -34.120602
##########                     Grid_vdw_energy:          -33.955826
##########                      Grid_es_energy:           -0.164776
##########           Internal_energy_repulsive:            8.946636

@<TRIPOS>MOLECULE
ZINC000967287417
 50 52 1 0 0
SMALL
USER_CHARGES


@<TRIPOS>ATOM
      1 C1         -7.3073    2.9341   49.9926 C.3     1  ZINC000967287417    0.0300
      2 O2         -6.8052    2.2828   51.1614 O.3     1  ZINC000967287417   -0.3900
      3 C3         -7.0536    0.8760   51.1948 C.3     1  ZINC000967287417    0.1400
      4 C4         -8.2446    0.5970   52.0750 C.2     1  ZINC000967287417    0.0100
      5 C5         -8.8729    1.5009   52.8586 C.2     1  ZINC000967287417   -0.1900
      6 C6         -9.9227    0.8290   53.5042 C.2     1  ZINC000967287417   -0.1200
      7 C7         -9.8811   -0.4671   53.0765 C.2     1  ZINC000967287417   -0.0700
      8 C8        -10.7922   -1.5400   53.4880 C.2     1  ZINC000967287417    0.6100
      9 O9        -11.0930   -2.4181   52.7009 O.2     1  ZINC000967287417   -0.5200
     10 N10       -11.2965   -1.5537   54.7377 N.am    1  ZINC000967287417   -0.7000
     11 C11       -12.2053   -2.6265   55.1493 C.3     1  ZINC000967287417    0.1600
     12 H12       -12.3715   -3.3040   54.3117 H       1  ZINC000967287417    0.1000
     13 C13       -11.5877   -3.3996   56.3167 C.3     1  ZINC000967287417    0.0400
     14 N14       -11.3821   -2.4916   57.4524 N.3     1  ZINC000967287417   -0.5300
     15 C15       -10.6642   -3.1661   58.5423 C.3     1  ZINC000967287417    0.1300
     16 C16        -9.9964   -2.1363   59.4167 C.2     1  ZINC000967287417    0.0200
     17 N17        -8.9676   -1.4006   59.1086 N.2     1  ZINC000967287417   -0.3500
     18 O18        -8.6585   -0.6646   60.0168 O.3     1  ZINC000967287417    0.1000
     19 C19        -9.4661   -0.8218   61.0751 C.2     1  ZINC000967287417   -0.0300
     20 C20        -9.3907   -0.0812   62.3854 C.3     1  ZINC000967287417   -0.0800
     21 C21       -10.3669   -1.7733   60.7319 C.2     1  ZINC000967287417   -0.2400
     22 C22       -12.6564   -1.9365   57.9259 C.3     1  ZINC000967287417    0.0500
     23 C23       -13.3060   -1.1199   56.8065 C.3     1  ZINC000967287417   -0.1100
     24 C24       -13.5412   -2.0233   55.5918 C.3     1  ZINC000967287417   -0.1000
     25 H25       -14.2309   -2.8233   55.8609 H       1  ZINC000967287417    0.0900
     26 C26       -14.1361   -1.1984   54.4486 C.3     1  ZINC000967287417   -0.1500
     27 O27        -8.8582   -0.5864   52.2049 O.3     1  ZINC000967287417   -0.1600
     28 H28        -8.3871    2.7967   49.9358 H       1  ZINC000967287417    0.0500
     29 H29        -7.0787    3.9987   50.0433 H       1  ZINC000967287417    0.0900
     30 H30        -6.8391    2.5037   49.1074 H       1  ZINC000967287417    0.0500
     31 H31        -7.2562    0.5187   50.1852 H       1  ZINC000967287417    0.0900
     32 H32        -6.1789    0.3620   51.5934 H       1  ZINC000967287417    0.0700
     33 H33        -8.6159    2.5441   52.9677 H       1  ZINC000967287417    0.1600
     34 H34       -10.6268    1.2546   54.2039 H       1  ZINC000967287417    0.1600
     35 H35       -11.0577   -0.8532   55.3648 H       1  ZINC000967287417    0.4100
     36 H36       -12.2580   -4.2063   56.6134 H       1  ZINC000967287417    0.0500
     37 H37       -10.6297   -3.8185   56.0087 H       1  ZINC000967287417    0.0900
     38 H38       -11.3693   -3.7460   59.1377 H       1  ZINC000967287417    0.0600
     39 H39        -9.9093   -3.8313   58.1232 H       1  ZINC000967287417    0.0900
     40 H40        -8.5609    0.6249   62.3565 H       1  ZINC000967287417    0.0800
     41 H41       -10.3225    0.4596   62.5512 H       1  ZINC000967287417    0.0900
     42 H42        -9.2343   -0.7927   63.1962 H       1  ZINC000967287417    0.0900
     43 H43       -11.1767   -2.1681   61.3276 H       1  ZINC000967287417    0.1700
     44 H44       -13.3218   -2.7501   58.2151 H       1  ZINC000967287417    0.0400
     45 H45       -12.4748   -1.2929   58.7867 H       1  ZINC000967287417    0.0800
     46 H46       -14.2593   -0.7210   57.1532 H       1  ZINC000967287417    0.0700
     47 H47       -12.6472   -0.2979   56.5265 H       1  ZINC000967287417    0.0700
     48 H48       -13.4448   -0.4001   54.1787 H       1  ZINC000967287417    0.0600
     49 H49       -14.3031   -1.8419   53.5849 H       1  ZINC000967287417    0.0600
     50 H50       -15.0841   -0.7656   54.7680 H       1  ZINC000967287417    0.0600
@<TRIPOS>BOND
     1     1     2    1
     2     1    28    1
     3     1    29    1
     4     1    30    1
     5     2     3    1
     6     3     4    1
     7     3    31    1
     8     3    32    1
     9     4    27    1
    10     4     5    2
    11     5     6    1
    12     5    33    1
    13     6     7    2
    14     6    34    1
    15     7     8    1
    16     7    27    1
    17     8     9    2
    18     8    10   am
    19    10    11    1
    20    10    35    1
    21    11    12    1
    22    11    24    1
    23    11    13    1
    24    13    14    1
    25    13    36    1
    26    13    37    1
    27    14    15    1
    28    14    22    1
    29    15    16    1
    30    15    38    1
    31    15    39    1
    32    16    21    1
    33    16    17    2
    34    17    18    1
    35    18    19    1
    36    19    20    1
    37    19    21    2
    38    20    40    1
    39    20    41    1
    40    20    42    1
    41    21    43    1
    42    22    23    1
    43    22    44    1
    44    22    45    1
    45    23    24    1
    46    23    46    1
    47    23    47    1
    48    24    25    1
    49    24    26    1
    50    26    48    1
    51    26    49    1
    52    26    50    1
@<TRIPOS>SUBSTRUCTURE
     1 ZINC000967287417        1 TEMP              0 ****  ****    0 ROOT


##########                                Name:    ZINC000004598904
##########                DOCK_Rotatable_Bonds:                  13
##########                         Heavy_Atoms:                  30
##########                    Molecular_Weight:             412.442
##########                DOCK_Rotatable_Bonds:                  13
##########                       Formal_Charge:          -0.0300005
##########                     HBond_Acceptors:                   8
##########                        HBond_Donors:                   2
##########                         Heavy_Atoms:                  30
##########                          Grid_Score:          -34.119549
##########                     Grid_vdw_energy:          -33.792530
##########                      Grid_es_energy:           -0.327021
##########           Internal_energy_repulsive:           12.827069

@<TRIPOS>MOLECULE
ZINC000004598904
 54 55 1 0 0
SMALL
USER_CHARGES


@<TRIPOS>ATOM
      1 C1        -14.7225   -6.1446   55.8533 C.3     1  ZINC000004598904   -0.1500
      2 C2        -14.4029   -4.9490   56.7529 C.3     1  ZINC000004598904    0.0600
      3 O3        -15.6180   -4.1957   57.0066 O.3     1  ZINC000004598904   -0.3500
      4 C4        -15.5147   -3.1220   57.8143 C.2     1  ZINC000004598904    0.5100
      5 O5        -16.4963   -2.7010   58.3937 O.2     1  ZINC000004598904   -0.5100
      6 C6        -14.2105   -2.4579   57.9949 C.ar    1  ZINC000004598904   -0.1500
      7 C7        -13.6265   -2.3941   59.2635 C.ar    1  ZINC000004598904   -0.0400
      8 C8        -12.4091   -1.7733   59.4283 C.ar    1  ZINC000004598904   -0.1400
      9 C9        -11.7598   -1.2096   58.3343 C.ar    1  ZINC000004598904    0.1800
     10 N10       -10.5266   -0.5820   58.5049 N.am    1  ZINC000004598904   -0.6700
     11 C11       -10.4639    0.6353   59.0799 C.2     1  ZINC000004598904    0.5200
     12 O12       -11.4801    1.1847   59.4490 O.2     1  ZINC000004598904   -0.5100
     13 C13        -9.1309    1.3137   59.2644 C.3     1  ZINC000004598904   -0.1300
     14 C14        -9.1014    2.6096   58.4516 C.3     1  ZINC000004598904   -0.1300
     15 C15        -8.4068    2.3626   57.1373 C.2     1  ZINC000004598904    0.5200
     16 O16        -7.4153    1.6654   57.0971 O.2     1  ZINC000004598904   -0.5100
     17 N17        -8.8874    2.9164   56.0064 N.am    1  ZINC000004598904   -0.6700
     18 C18        -8.2447    2.6879   54.7906 C.ar    1  ZINC000004598904    0.1800
     19 C19        -8.8971    1.9855   53.7819 C.ar    1  ZINC000004598904   -0.1400
     20 C20        -8.2656    1.7581   52.5801 C.ar    1  ZINC000004598904   -0.0300
     21 C21        -6.9674    2.2340   52.3735 C.ar    1  ZINC000004598904   -0.1500
     22 C22        -6.2878    1.9926   51.0873 C.2     1  ZINC000004598904    0.5100
     23 O23        -6.9273    1.9855   50.0543 O.2     1  ZINC000004598904   -0.5100
     24 O24        -4.9575    1.7801   51.0576 O.3     1  ZINC000004598904   -0.3600
     25 C25        -4.2115    2.4192   49.9885 C.3     1  ZINC000004598904    0.0600
     26 C26        -3.4324    3.6097   50.5511 C.3     1  ZINC000004598904   -0.1500
     27 C27        -6.3151    2.9396   53.3890 C.ar    1  ZINC000004598904   -0.0400
     28 C28        -6.9545    3.1676   54.5865 C.ar    1  ZINC000004598904   -0.1600
     29 C29       -12.3381   -1.2712   57.0702 C.ar    1  ZINC000004598904   -0.1600
     30 C30       -13.5527   -1.8954   56.8970 C.ar    1  ZINC000004598904   -0.0300
     31 H31       -15.1334   -5.7888   54.9085 H       1  ZINC000004598904    0.0700
     32 H32       -13.8103   -6.7101   55.6629 H       1  ZINC000004598904    0.0800
     33 H33       -15.4514   -6.7866   56.3477 H       1  ZINC000004598904    0.0700
     34 H34       -13.9920   -5.3048   57.6978 H       1  ZINC000004598904    0.0700
     35 H35       -13.6739   -4.3069   56.2585 H       1  ZINC000004598904    0.0700
     36 H36       -14.1300   -2.8310   60.1132 H       1  ZINC000004598904    0.1400
     37 H37       -11.9574   -1.7233   60.4081 H       1  ZINC000004598904    0.1400
     38 H38        -9.7138   -1.0215   58.2097 H       1  ZINC000004598904    0.4200
     39 H39        -8.9830    1.5432   60.3196 H       1  ZINC000004598904    0.1100
     40 H40        -8.3358    0.6516   58.9215 H       1  ZINC000004598904    0.1100
     41 H41       -10.1217    2.9453   58.2659 H       1  ZINC000004598904    0.1100
     42 H42        -8.5626    3.3759   59.0089 H       1  ZINC000004598904    0.1100
     43 H43        -9.6804    3.4740   56.0386 H       1  ZINC000004598904    0.4200
     44 H44        -9.9000    1.6183   53.9422 H       1  ZINC000004598904    0.1400
     45 H45        -8.7723    1.2123   51.7980 H       1  ZINC000004598904    0.1400
     46 H46        -3.5153    1.7027   49.5525 H       1  ZINC000004598904    0.0700
     47 H47        -4.9026    2.7673   49.2209 H       1  ZINC000004598904    0.0700
     48 H48        -2.8723    4.0895   49.7485 H       1  ZINC000004598904    0.0800
     49 H49        -4.1286    4.3262   50.9870 H       1  ZINC000004598904    0.0700
     50 H50        -2.7412    3.2616   51.3186 H       1  ZINC000004598904    0.0700
     51 H51        -5.3122    3.3084   53.2330 H       1  ZINC000004598904    0.1400
     52 H52        -6.4515    3.7129   55.3714 H       1  ZINC000004598904    0.1400
     53 H53       -11.8315   -0.8326   56.2233 H       1  ZINC000004598904    0.1400
     54 H54       -14.0010   -1.9429   55.9156 H       1  ZINC000004598904    0.1400
@<TRIPOS>BOND
     1     1     2    1
     2     1    31    1
     3     1    32    1
     4     1    33    1
     5     2     3    1
     6     2    34    1
     7     2    35    1
     8     3     4    1
     9     4     5    2
    10     4     6    1
    11     6    30   ar
    12     6     7   ar
    13     7     8   ar
    14     7    36    1
    15     8     9   ar
    16     8    37    1
    17     9    10    1
    18     9    29   ar
    19    10    11   am
    20    10    38    1
    21    11    12    2
    22    11    13    1
    23    13    14    1
    24    13    39    1
    25    13    40    1
    26    14    15    1
    27    14    41    1
    28    14    42    1
    29    15    16    2
    30    15    17   am
    31    17    18    1
    32    17    43    1
    33    18    28   ar
    34    18    19   ar
    35    19    20   ar
    36    19    44    1
    37    20    21   ar
    38    20    45    1
    39    21    22    1
    40    21    27   ar
    41    22    23    2
    42    22    24    1
    43    24    25    1
    44    25    26    1
    45    25    46    1
    46    25    47    1
    47    26    48    1
    48    26    49    1
    49    26    50    1
    50    27    28   ar
    51    27    51    1
    52    28    52    1
    53    29    30   ar
    54    29    53    1
    55    30    54    1
@<TRIPOS>SUBSTRUCTURE
     1 ZINC000004598904        1 TEMP              0 ****  ****    0 ROOT


##########                                Name:    ZINC001124460178
##########                DOCK_Rotatable_Bonds:                  12
##########                         Heavy_Atoms:                  22
##########                    Molecular_Weight:             328.479
##########                DOCK_Rotatable_Bonds:                  12
##########                       Formal_Charge:          -0.0100003
##########                     HBond_Acceptors:                   7
##########                        HBond_Donors:                   2
##########                         Heavy_Atoms:                  22
##########                          Grid_Score:          -34.007000
##########                     Grid_vdw_energy:          -33.407719
##########                      Grid_es_energy:           -0.599280
##########           Internal_energy_repulsive:           18.284742

@<TRIPOS>MOLECULE
ZINC001124460178
 50 50 1 0 0
SMALL
USER_CHARGES


@<TRIPOS>ATOM
      1 C1         -9.3407   -1.6914   60.1952 C.3     1  ZINC001124460178   -0.0700
      2 C2        -10.6689   -2.0923   59.6068 C.2     1  ZINC001124460178    0.3100
      3 N3        -11.7872   -1.7102   60.1514 N.2     1  ZINC001124460178   -0.5000
      4 S4        -13.0203   -2.3720   59.1871 S.3     1  ZINC001124460178    0.1800
      5 C5        -11.9379   -3.1384   58.0870 C.2     1  ZINC001124460178    0.3400
      6 N6        -12.2627   -3.9025   56.9808 N.pl3   1  ZINC001124460178   -0.6600
      7 C7        -12.6397   -3.2498   55.7247 C.3     1  ZINC001124460178    0.0900
      8 C8        -11.4232   -2.5302   55.1388 C.3     1  ZINC001124460178    0.0800
      9 H9        -10.9618   -1.9112   55.9081 H       1  ZINC001124460178    0.1200
     10 O10       -10.4777   -3.4951   54.6731 O.3     1  ZINC001124460178   -0.5500
     11 C11       -11.8669   -1.6463   53.9714 C.3     1  ZINC001124460178    0.0900
     12 N12       -11.0198   -0.4525   53.9132 N.am    1  ZINC001124460178   -0.6100
     13 C13       -11.2393    0.6481   54.8549 C.3     1  ZINC001124460178    0.0800
     14 C14       -10.0387   -0.3666   52.9932 C.2     1  ZINC001124460178    0.5100
     15 O15        -9.8580   -1.2770   52.2126 O.2     1  ZINC001124460178   -0.5400
     16 C16        -9.1661    0.8607   52.9345 C.3     1  ZINC001124460178   -0.1400
     17 C17        -7.8590    0.5232   52.2144 C.3     1  ZINC001124460178   -0.1100
     18 C18        -6.9816    1.7743   52.1369 C.3     1  ZINC001124460178   -0.1200
     19 C19        -5.7278    1.4678   51.3156 C.3     1  ZINC001124460178   -0.1200
     20 C20        -4.8677    2.7286   51.2081 C.3     1  ZINC001124460178   -0.1000
     21 C21        -3.6131    2.4217   50.3879 C.3     1  ZINC001124460178   -0.1500
     22 C22        -5.6689    3.8354   50.5199 C.3     1  ZINC001124460178   -0.1500
     23 N23       -10.7346   -2.8338   58.5255 N.2     1  ZINC001124460178   -0.5800
     24 H24        -9.0188   -0.7472   59.7558 H       1  ZINC001124460178    0.0900
     25 H25        -9.4417   -1.5742   61.2742 H       1  ZINC001124460178    0.0900
     26 H26        -8.6008   -2.4626   59.9811 H       1  ZINC001124460178    0.0900
     27 H27       -12.2410   -4.8707   57.0369 H       1  ZINC001124460178    0.4200
     28 H28       -12.9938   -3.9997   55.0174 H       1  ZINC001124460178    0.0800
     29 H29       -13.4329   -2.5266   55.9148 H       1  ZINC001124460178    0.0900
     30 H30        -9.8233   -3.1389   54.0566 H       1  ZINC001124460178    0.3800
     31 H31       -11.7748   -2.2029   53.0387 H       1  ZINC001124460178    0.0900
     32 H32       -12.9054   -1.3483   54.1155 H       1  ZINC001124460178    0.1000
     33 H33       -10.6366    0.4870   55.7487 H       1  ZINC001124460178    0.0600
     34 H34       -10.9511    1.5895   54.3871 H       1  ZINC001124460178    0.0800
     35 H35       -12.2934    0.6865   55.1295 H       1  ZINC001124460178    0.0800
     36 H36        -9.6861    1.6507   52.3924 H       1  ZINC001124460178    0.0900
     37 H37        -8.9462    1.1990   53.9471 H       1  ZINC001124460178    0.0900
     38 H38        -7.3321   -0.2566   52.7644 H       1  ZINC001124460178    0.0700
     39 H39        -8.0797    0.1712   51.2067 H       1  ZINC001124460178    0.0700
     40 H40        -7.5398    2.5805   51.6609 H       1  ZINC001124460178    0.0600
     41 H41        -6.6919    2.0777   53.1429 H       1  ZINC001124460178    0.0600
     42 H42        -5.1566    0.6790   51.8051 H       1  ZINC001124460178    0.0600
     43 H43        -6.0184    1.1401   50.3174 H       1  ZINC001124460178    0.0600
     44 H44        -4.5778    3.0569   52.2064 H       1  ZINC001124460178    0.0700
     45 H45        -3.9029    2.0935   49.3897 H       1  ZINC001124460178    0.0500
     46 H46        -3.0003    3.3200   50.3114 H       1  ZINC001124460178    0.0500
     47 H47        -3.0422    1.6333   50.8782 H       1  ZINC001124460178    0.0500
     48 H48        -6.5627    4.0540   51.1043 H       1  ZINC001124460178    0.0600
     49 H49        -5.0562    4.7337   50.4434 H       1  ZINC001124460178    0.0500
     50 H50        -5.9588    3.5072   49.5218 H       1  ZINC001124460178    0.0500
@<TRIPOS>BOND
     1     1     2    1
     2     1    24    1
     3     1    25    1
     4     1    26    1
     5     2    23    1
     6     2     3    2
     7     3     4    1
     8     4     5    1
     9     5     6    1
    10     5    23    2
    11     6     7    1
    12     6    27    1
    13     7     8    1
    14     7    28    1
    15     7    29    1
    16     8     9    1
    17     8    10    1
    18     8    11    1
    19    10    30    1
    20    11    12    1
    21    11    31    1
    22    11    32    1
    23    12    13    1
    24    12    14   am
    25    13    33    1
    26    13    34    1
    27    13    35    1
    28    14    15    2
    29    14    16    1
    30    16    17    1
    31    16    36    1
    32    16    37    1
    33    17    18    1
    34    17    38    1
    35    17    39    1
    36    18    19    1
    37    18    40    1
    38    18    41    1
    39    19    20    1
    40    19    42    1
    41    19    43    1
    42    20    21    1
    43    20    22    1
    44    20    44    1
    45    21    45    1
    46    21    46    1
    47    21    47    1
    48    22    48    1
    49    22    49    1
    50    22    50    1
@<TRIPOS>SUBSTRUCTURE
     1 ZINC001124460178        1 TEMP              0 ****  ****    0 ROOT


##########                                Name:    ZINC000671418508
##########                DOCK_Rotatable_Bonds:                   9
##########                         Heavy_Atoms:                  28
##########                    Molecular_Weight:             405.884
##########                DOCK_Rotatable_Bonds:                   9
##########                       Formal_Charge:         -1.3411e-07
##########                     HBond_Acceptors:                   9
##########                        HBond_Donors:                   2
##########                         Heavy_Atoms:                  28
##########                          Grid_Score:          -34.000946
##########                     Grid_vdw_energy:          -33.737576
##########                      Grid_es_energy:           -0.263370
##########           Internal_energy_repulsive:           23.098227

@<TRIPOS>MOLECULE
ZINC000671418508
 52 54 1 0 0
SMALL
USER_CHARGES


@<TRIPOS>ATOM
      1 C1         -4.9700    2.3779   50.4396 C.3     1  ZINC000671418508    0.1000
      2 N2         -6.3699    2.7308   50.6892 N.pl3   1  ZINC000671418508   -0.3700
      3 C3         -7.0794    2.4289   51.7967 C.2     1  ZINC000671418508    0.0800
      4 C4         -8.3261    2.9302   51.6372 C.2     1  ZINC000671418508   -0.2700
      5 C5         -9.4561    2.8286   52.6291 C.3     1  ZINC000671418508    0.2000
      6 N6        -10.2315    1.6144   52.3631 N.am    1  ZINC000671418508   -0.6900
      7 C7         -9.8803    0.4500   52.9438 C.2     1  ZINC000671418508    0.5100
      8 O8         -8.9211    0.4070   53.6858 O.2     1  ZINC000671418508   -0.5100
      9 C9        -10.6724   -0.7883   52.6739 C.2     1  ZINC000671418508    0.5100
     10 O10       -10.4825   -1.4201   51.6554 O.2     1  ZINC000671418508   -0.5200
     11 N11       -11.5977   -1.2033   53.5618 N.am    1  ZINC000671418508   -0.5800
     12 C12       -12.3838   -2.4224   53.3187 C.3     1  ZINC000671418508    0.0800
     13 C13       -12.2940   -3.3152   54.5608 C.3     1  ZINC000671418508    0.0400
     14 N14       -12.6949   -2.5434   55.7447 N.3     1  ZINC000671418508   -0.5200
     15 C15       -12.7880   -3.4071   56.9293 C.3     1  ZINC000671418508    0.1300
     16 H16       -12.3840   -4.3917   56.6939 H       1  ZINC000671418508    0.0600
     17 C17       -14.2537   -3.5438   57.3468 C.3     1  ZINC000671418508    0.0900
     18 O18       -14.7839   -4.7663   56.8306 O.3     1  ZINC000671418508   -0.5500
     19 C19       -11.9988   -2.7972   58.0589 C.ar    1  ZINC000671418508   -0.0800
     20 C20       -10.6750   -3.1491   58.2458 C.ar    1  ZINC000671418508   -0.0600
     21 C21        -9.9507   -2.5900   59.2818 C.ar    1  ZINC000671418508   -0.1200
     22 C22       -10.5506   -1.6780   60.1317 C.ar    1  ZINC000671418508   -0.0300
     23 Cl23       -9.6413   -0.9750   61.4327 Cl      1  ZINC000671418508   -0.0700
     24 C24       -11.8754   -1.3261   59.9441 C.ar    1  ZINC000671418508   -0.1200
     25 C25       -12.5971   -1.8816   58.9044 C.ar    1  ZINC000671418508   -0.1100
     26 C26       -11.7793   -1.4196   55.9832 C.3     1  ZINC000671418508    0.0400
     27 C27       -11.8437   -0.4525   54.8023 C.3     1  ZINC000671418508    0.1100
     28 C28        -8.3803    3.5601   50.3896 C.2     1  ZINC000671418508    0.0700
     29 N29        -7.2064    3.4464   49.8230 N.2     1  ZINC000671418508   -0.2900
     30 H30        -4.3230    3.1708   50.8148 H       1  ZINC000671418508    0.0800
     31 H31        -4.7341    1.4442   50.9502 H       1  ZINC000671418508    0.0900
     32 H32        -4.8115    2.2562   49.3681 H       1  ZINC000671418508    0.0900
     33 H33        -6.7171    1.8843   52.6562 H       1  ZINC000671418508    0.1800
     34 H34        -9.0498    2.7863   53.6396 H       1  ZINC000671418508    0.0800
     35 H35       -10.1028    3.7009   52.5337 H       1  ZINC000671418508    0.0800
     36 H36       -10.9976    1.6485   51.7691 H       1  ZINC000671418508    0.4100
     37 H37       -13.4244   -2.1561   53.1336 H       1  ZINC000671418508    0.0800
     38 H38       -11.9796   -2.9528   52.4564 H       1  ZINC000671418508    0.1400
     39 H39       -12.9586   -4.1710   54.4423 H       1  ZINC000671418508    0.0900
     40 H40       -11.2689   -3.6646   54.6843 H       1  ZINC000671418508    0.0400
     41 H41       -14.3227   -3.5484   58.4346 H       1  ZINC000671418508    0.0500
     42 H42       -14.8243   -2.7041   56.9500 H       1  ZINC000671418508    0.0500
     43 H43       -15.6216   -4.6634   56.3586 H       1  ZINC000671418508    0.3800
     44 H44       -10.2069   -3.8613   57.5826 H       1  ZINC000671418508    0.1400
     45 H45        -8.9167   -2.8653   59.4279 H       1  ZINC000671418508    0.1300
     46 H46       -12.3444   -0.6145   60.6075 H       1  ZINC000671418508    0.1300
     47 H47       -13.6312   -1.6067   58.7577 H       1  ZINC000671418508    0.1300
     48 H48       -12.0706   -0.9007   56.8965 H       1  ZINC000671418508    0.0900
     49 H49       -10.7614   -1.7955   56.0869 H       1  ZINC000671418508    0.0400
     50 H50       -11.0848    0.3210   54.9207 H       1  ZINC000671418508    0.1000
     51 H51       -12.8323    0.0045   54.7567 H       1  ZINC000671418508    0.0800
     52 H52        -9.2410    4.0585   49.9687 H       1  ZINC000671418508    0.1900
@<TRIPOS>BOND
     1     1     2    1
     2     1    30    1
     3     1    31    1
     4     1    32    1
     5     2    29    1
     6     2     3    1
     7     3     4    2
     8     3    33    1
     9     4     5    1
    10     4    28    1
    11     5     6    1
    12     5    34    1
    13     5    35    1
    14     6     7   am
    15     6    36    1
    16     7     8    2
    17     7     9    1
    18     9    10    2
    19     9    11   am
    20    11    27    1
    21    11    12    1
    22    12    13    1
    23    12    37    1
    24    12    38    1
    25    13    14    1
    26    13    39    1
    27    13    40    1
    28    14    15    1
    29    14    26    1
    30    15    16    1
    31    15    17    1
    32    15    19    1
    33    17    18    1
    34    17    41    1
    35    17    42    1
    36    18    43    1
    37    19    25   ar
    38    19    20   ar
    39    20    21   ar
    40    20    44    1
    41    21    22   ar
    42    21    45    1
    43    22    23    1
    44    22    24   ar
    45    24    25   ar
    46    24    46    1
    47    25    47    1
    48    26    27    1
    49    26    48    1
    50    26    49    1
    51    27    50    1
    52    27    51    1
    53    28    29    2
    54    28    52    1
@<TRIPOS>SUBSTRUCTURE
     1 ZINC000671418508        1 TEMP              0 ****  ****    0 ROOT


##########                                Name:    ZINC000435005159
##########                DOCK_Rotatable_Bonds:                  12
##########                         Heavy_Atoms:                  30
##########                    Molecular_Weight:             401.508
##########                DOCK_Rotatable_Bonds:                  12
##########                       Formal_Charge:          -0.0399985
##########                     HBond_Acceptors:                   5
##########                        HBond_Donors:                   2
##########                         Heavy_Atoms:                  30
##########                          Grid_Score:          -33.973408
##########                     Grid_vdw_energy:          -34.089832
##########                      Grid_es_energy:            0.116425
##########           Internal_energy_repulsive:           10.610197

@<TRIPOS>MOLECULE
ZINC000435005159
 57 59 1 0 0
SMALL
USER_CHARGES


@<TRIPOS>ATOM
      1 O1        -13.0973    1.4361   52.8752 O.2     1  ZINC000435005159   -0.5300
      2 C2        -13.0537    0.6290   51.9710 C.2     1  ZINC000435005159    0.5200
      3 C3        -13.8595    0.8570   50.7180 C.3     1  ZINC000435005159   -0.1400
      4 C4        -14.3851   -0.4828   50.1987 C.3     1  ZINC000435005159   -0.1200
      5 C5        -15.3520   -0.2363   49.0389 C.3     1  ZINC000435005159    0.1200
      6 N6        -15.8751   -1.5178   48.5586 N.am    1  ZINC000435005159   -0.7200
      7 C7        -15.1977   -2.2148   47.6250 C.2     1  ZINC000435005159    0.5600
      8 O8        -14.1534   -1.7797   47.1805 O.2     1  ZINC000435005159   -0.5300
      9 C9        -15.7247   -3.5088   47.1416 C.ar    1  ZINC000435005159   -0.1900
     10 C10       -16.9295   -4.0177   47.6404 C.ar    1  ZINC000435005159   -0.0200
     11 C11       -17.3794   -5.2330   47.1546 C.ar    1  ZINC000435005159   -0.1800
     12 C12       -16.6316   -5.8996   46.2011 C.ar    1  ZINC000435005159    0.1200
     13 N13       -15.4987   -5.3957   45.7493 N.ar    1  ZINC000435005159   -0.4900
     14 C14       -15.0322   -4.2408   46.1760 C.ar    1  ZINC000435005159    0.1400
     15 N15       -12.2804   -0.4690   52.0843 N.am    1  ZINC000435005159   -0.7300
     16 C16       -11.4971   -0.6906   53.3022 C.3     1  ZINC000435005159    0.1900
     17 H17       -12.0071   -0.2340   54.1505 H       1  ZINC000435005159    0.1000
     18 C18       -11.3477   -2.1937   53.5461 C.3     1  ZINC000435005159   -0.1200
     19 C19       -12.4634   -2.6728   54.4769 C.3     1  ZINC000435005159   -0.0800
     20 C20       -12.0885   -2.3743   55.9057 C.ar    1  ZINC000435005159   -0.0800
     21 C21       -11.1669   -3.1708   56.5593 C.ar    1  ZINC000435005159   -0.1200
     22 C22       -10.8229   -2.8969   57.8698 C.ar    1  ZINC000435005159   -0.1200
     23 C23       -11.4002   -1.8263   58.5267 C.ar    1  ZINC000435005159   -0.1200
     24 C24       -12.3211   -1.0293   57.8727 C.ar    1  ZINC000435005159   -0.1200
     25 C25       -12.6618   -1.3006   56.5607 C.ar    1  ZINC000435005159   -0.1200
     26 C26       -10.1333   -0.0697   53.1424 C.ar    1  ZINC000435005159   -0.1000
     27 C27        -9.7006    0.8881   54.0404 C.ar    1  ZINC000435005159   -0.1100
     28 C28        -8.4496    1.4577   53.8939 C.ar    1  ZINC000435005159   -0.1200
     29 C29        -7.6311    1.0692   52.8497 C.ar    1  ZINC000435005159   -0.1200
     30 C30        -8.0637    0.1108   51.9524 C.ar    1  ZINC000435005159   -0.1200
     31 C31        -9.3129   -0.4619   52.1014 C.ar    1  ZINC000435005159   -0.1000
     32 H32       -14.6995    1.5150   50.9409 H       1  ZINC000435005159    0.1000
     33 H33       -13.2281    1.3184   49.9588 H       1  ZINC000435005159    0.1000
     34 H34       -13.5496   -1.0912   49.8524 H       1  ZINC000435005159    0.0800
     35 H35       -14.9060   -1.0045   51.0016 H       1  ZINC000435005159    0.0800
     36 H36       -16.1775    0.3880   49.3804 H       1  ZINC000435005159    0.0700
     37 H37       -14.8260    0.2680   48.2283 H       1  ZINC000435005159    0.0700
     38 H38       -16.7091   -1.8644   48.9125 H       1  ZINC000435005159    0.4000
     39 H39       -17.4934   -3.4760   48.3856 H       1  ZINC000435005159    0.1500
     40 H40       -18.3045   -5.6566   47.5166 H       1  ZINC000435005159    0.1500
     41 H41       -16.9803   -6.8481   45.8202 H       1  ZINC000435005159    0.1600
     42 H42       -14.1012   -3.8610   45.7820 H       1  ZINC000435005159    0.1600
     43 H43       -12.2426   -1.1125   51.3594 H       1  ZINC000435005159    0.4000
     44 H44       -11.4142   -2.7242   52.5962 H       1  ZINC000435005159    0.0700
     45 H45       -10.3799   -2.3927   54.0064 H       1  ZINC000435005159    0.0800
     46 H46       -13.3905   -2.1560   54.2290 H       1  ZINC000435005159    0.0700
     47 H47       -12.6024   -3.7470   54.3546 H       1  ZINC000435005159    0.0700
     48 H48       -10.7160   -4.0073   56.0461 H       1  ZINC000435005159    0.1200
     49 H49       -10.1035   -3.5197   58.3807 H       1  ZINC000435005159    0.1200
     50 H50       -11.1320   -1.6128   59.5508 H       1  ZINC000435005159    0.1200
     51 H51       -12.7724   -0.1930   58.3860 H       1  ZINC000435005159    0.1200
     52 H52       -13.3813   -0.6778   56.0499 H       1  ZINC000435005159    0.1200
     53 H53       -10.3399    1.1916   54.8562 H       1  ZINC000435005159    0.1200
     54 H54        -8.1118    2.2065   54.5950 H       1  ZINC000435005159    0.1200
     55 H55        -6.6541    1.5147   52.7349 H       1  ZINC000435005159    0.1200
     56 H56        -7.4244   -0.1925   51.1364 H       1  ZINC000435005159    0.1200
     57 H57        -9.6507   -1.2108   51.4003 H       1  ZINC000435005159    0.1200
@<TRIPOS>BOND
     1     1     2    2
     2     2     3    1
     3     2    15   am
     4     3     4    1
     5     3    32    1
     6     3    33    1
     7     4     5    1
     8     4    34    1
     9     4    35    1
    10     5     6    1
    11     5    36    1
    12     5    37    1
    13     6     7   am
    14     6    38    1
    15     7     8    2
    16     7     9    1
    17     9    14   ar
    18     9    10   ar
    19    10    11   ar
    20    10    39    1
    21    11    12   ar
    22    11    40    1
    23    12    13   ar
    24    12    41    1
    25    13    14   ar
    26    14    42    1
    27    15    16    1
    28    15    43    1
    29    16    17    1
    30    16    18    1
    31    16    26    1
    32    18    19    1
    33    18    44    1
    34    18    45    1
    35    19    20    1
    36    19    46    1
    37    19    47    1
    38    20    25   ar
    39    20    21   ar
    40    21    22   ar
    41    21    48    1
    42    22    23   ar
    43    22    49    1
    44    23    24   ar
    45    23    50    1
    46    24    25   ar
    47    24    51    1
    48    25    52    1
    49    26    31   ar
    50    26    27   ar
    51    27    28   ar
    52    27    53    1
    53    28    29   ar
    54    28    54    1
    55    29    30   ar
    56    29    55    1
    57    30    31   ar
    58    30    56    1
    59    31    57    1
@<TRIPOS>SUBSTRUCTURE
     1 ZINC000435005159        1 TEMP              0 ****  ****    0 ROOT


##########                                Name:    ZINC000033150761
##########                DOCK_Rotatable_Bonds:                   7
##########                         Heavy_Atoms:                  29
##########                    Molecular_Weight:             413.407
##########                DOCK_Rotatable_Bonds:                   7
##########                       Formal_Charge:          0.00999993
##########                     HBond_Acceptors:                  10
##########                        HBond_Donors:                   1
##########                         Heavy_Atoms:                  29
##########                          Grid_Score:          -33.972359
##########                     Grid_vdw_energy:          -33.130924
##########                      Grid_es_energy:           -0.841433
##########           Internal_energy_repulsive:            3.715452

@<TRIPOS>MOLECULE
ZINC000033150761
 42 45 1 0 0
SMALL
USER_CHARGES


@<TRIPOS>ATOM
      1 O1        -11.1847   -1.6995   51.8208 O.2     1  ZINC000033150761   -0.5000
      2 C2        -10.9389   -1.8754   52.9954 C.2     1  ZINC000033150761    0.5200
      3 C3        -11.3405   -3.1647   53.6644 C.3     1  ZINC000033150761   -0.1300
      4 C4        -12.4394   -2.8855   54.6917 C.3     1  ZINC000033150761   -0.0100
      5 C5        -11.8311   -2.8024   56.0680 C.2     1  ZINC000033150761    0.1800
      6 N6        -11.4823   -1.7094   56.6996 N.2     1  ZINC000033150761   -0.4400
      7 C7        -10.9882   -2.1195   57.8894 C.2     1  ZINC000033150761    0.2200
      8 C8        -10.4579   -1.2506   58.9703 C.ar    1  ZINC000033150761    0.1900
      9 C9        -10.1020   -1.8106   60.1941 C.ar    1  ZINC000033150761   -0.1300
     10 C10        -9.6086   -0.9876   61.1929 C.ar    1  ZINC000033150761   -0.0700
     11 C11        -9.4881    0.3693   60.9329 C.ar    1  ZINC000033150761   -0.1500
     12 C12        -9.8610    0.8581   59.6934 C.ar    1  ZINC000033150761    0.1100
     13 N13       -10.3221    0.0520   58.7597 N.ar    1  ZINC000033150761   -0.4500
     14 N14       -11.0653   -3.4243   57.9104 N.2     1  ZINC000033150761   -0.3600
     15 O15       -11.5516   -3.8299   56.8759 O.3     1  ZINC000033150761    0.0900
     16 N16       -10.3018   -0.9201   53.7010 N.am    1  ZINC000033150761   -0.6200
     17 C17        -9.9316    0.2687   53.0841 C.2     1  ZINC000033150761    0.2700
     18 N18        -8.7197    0.6020   52.7656 N.2     1  ZINC000033150761   -0.5000
     19 C19        -8.5533    1.7798   52.1807 C.2     1  ZINC000033150761    0.1200
     20 C20        -7.2188    2.2780   51.7667 C.ar    1  ZINC000033150761    0.0000
     21 C21        -6.8198    2.1825   50.4349 C.ar    1  ZINC000033150761   -0.0800
     22 C22        -5.5775    2.6475   50.0529 C.ar    1  ZINC000033150761   -0.1200
     23 C23        -4.7270    3.2085   50.9903 C.ar    1  ZINC000033150761    0.0700
     24 F24        -3.5122    3.6621   50.6117 F       1  ZINC000033150761   -0.1300
     25 C25        -5.1193    3.3065   52.3179 C.ar    1  ZINC000033150761    0.0700
     26 F26        -4.2862    3.8552   53.2291 F       1  ZINC000033150761   -0.1300
     27 C27        -6.3629    2.8481   52.7076 C.ar    1  ZINC000033150761   -0.1000
     28 C28        -9.6779    2.4920   51.9882 C.2     1  ZINC000033150761   -0.2800
     29 S29       -11.0360    1.5545   52.6062 S.3     1  ZINC000033150761    0.2200
     30 H30       -11.7130   -3.8625   52.9144 H       1  ZINC000033150761    0.1200
     31 H31       -10.4756   -3.5983   54.1663 H       1  ZINC000033150761    0.1200
     32 H32       -12.9286   -1.9412   54.4529 H       1  ZINC000033150761    0.1300
     33 H33       -13.1732   -3.6912   54.6667 H       1  ZINC000033150761    0.1200
     34 H34       -10.2093   -2.8720   60.3623 H       1  ZINC000033150761    0.1400
     35 H35        -9.3245   -1.3933   62.1526 H       1  ZINC000033150761    0.1500
     36 H36        -9.1072    1.0380   61.6907 H       1  ZINC000033150761    0.1400
     37 H37        -9.7686    1.9141   59.4873 H       1  ZINC000033150761    0.1700
     38 H38       -10.1018   -1.0624   54.6394 H       1  ZINC000033150761    0.4300
     39 H39        -7.4817    1.7448   49.7025 H       1  ZINC000033150761    0.1400
     40 H40        -5.2682    2.5731   49.0208 H       1  ZINC000033150761    0.1500
     41 H41        -6.6683    2.9244   53.7408 H       1  ZINC000033150761    0.1600
     42 H42        -9.7386    3.4679   51.5297 H       1  ZINC000033150761    0.1800
@<TRIPOS>BOND
     1     1     2    2
     2     2     3    1
     3     2    16   am
     4     3     4    1
     5     3    30    1
     6     3    31    1
     7     4     5    1
     8     4    32    1
     9     4    33    1
    10     5    15    1
    11     5     6    2
    12     6     7    1
    13     7     8    1
    14     7    14    2
    15     8    13   ar
    16     8     9   ar
    17     9    10   ar
    18     9    34    1
    19    10    11   ar
    20    10    35    1
    21    11    12   ar
    22    11    36    1
    23    12    13   ar
    24    12    37    1
    25    14    15    1
    26    16    17    1
    27    16    38    1
    28    17    29    1
    29    17    18    2
    30    18    19    1
    31    19    20    1
    32    19    28    2
    33    20    27   ar
    34    20    21   ar
    35    21    22   ar
    36    21    39    1
    37    22    23   ar
    38    22    40    1
    39    23    24    1
    40    23    25   ar
    41    25    26    1
    42    25    27   ar
    43    27    41    1
    44    28    29    1
    45    28    42    1
@<TRIPOS>SUBSTRUCTURE
     1 ZINC000033150761        1 TEMP              0 ****  ****    0 ROOT


##########                                Name:    ZINC000124554441
##########                DOCK_Rotatable_Bonds:                   9
##########                         Heavy_Atoms:                  26
##########                    Molecular_Weight:             375.898
##########                DOCK_Rotatable_Bonds:                   9
##########                       Formal_Charge:         -0.00999991
##########                     HBond_Acceptors:                   6
##########                        HBond_Donors:                   1
##########                         Heavy_Atoms:                  26
##########                          Grid_Score:          -33.964279
##########                     Grid_vdw_energy:          -33.211292
##########                      Grid_es_energy:           -0.752988
##########           Internal_energy_repulsive:           14.653561

@<TRIPOS>MOLECULE
ZINC000124554441
 52 53 1 0 0
SMALL
USER_CHARGES


@<TRIPOS>ATOM
      1 C1         -2.2015    2.4150   50.3146 C.3     1  ZINC000124554441   -0.1500
      2 C2         -3.2091    2.8521   51.3797 C.3     1  ZINC000124554441   -0.1300
      3 C3         -4.2883    3.7233   50.7340 C.3     1  ZINC000124554441   -0.1200
      4 C4         -5.3886    2.8295   50.1585 C.3     1  ZINC000124554441   -0.1200
      5 C5         -6.2280    2.2542   51.3011 C.3     1  ZINC000124554441   -0.1300
      6 C6         -7.6599    2.0214   50.8148 C.3     1  ZINC000124554441    0.1200
      7 N7         -8.5242    1.7325   51.9619 N.am    1  ZINC000124554441   -0.7300
      8 C8         -8.8105    0.4558   52.2854 C.2     1  ZINC000124554441    0.5200
      9 O9         -8.3536   -0.4538   51.6260 O.2     1  ZINC000124554441   -0.5300
     10 C10        -9.6981    0.1586   53.4664 C.3     1  ZINC000124554441   -0.1200
     11 H11        -9.0877    0.0559   54.3636 H       1  ZINC000124554441    0.1000
     12 C12       -10.6962    1.3031   53.6560 C.3     1  ZINC000124554441   -0.1000
     13 C13       -11.5765    1.0179   54.8749 C.3     1  ZINC000124554441   -0.1400
     14 C14       -12.3631   -0.2756   54.6403 C.3     1  ZINC000124554441    0.0900
     15 N15       -11.4173   -1.3516   54.3140 N.am    1  ZINC000124554441   -0.6000
     16 C16       -11.4248   -2.5065   55.0084 C.2     1  ZINC000124554441    0.5600
     17 O17       -10.6373   -3.3890   54.7288 O.2     1  ZINC000124554441   -0.5200
     18 C18       -12.3916   -2.7002   56.1112 C.ar    1  ZINC000124554441   -0.0900
     19 C19       -13.5924   -3.3727   55.8763 C.ar    1  ZINC000124554441   -0.0900
     20 C20       -14.4934   -3.5536   56.9021 C.ar    1  ZINC000124554441   -0.0600
     21 C21       -14.2065   -3.0640   58.1783 C.ar    1  ZINC000124554441    0.0100
     22 C22       -15.1432   -3.2519   59.2450 C.1     1  ZINC000124554441    0.2400
     23 N23       -15.8863   -3.4012   60.0912 N.1     1  ZINC000124554441   -0.3800
     24 C24       -13.0041   -2.3904   58.4139 C.ar    1  ZINC000124554441    0.0000
     25 Cl25      -12.6459   -1.7817   59.9998 Cl      1  ZINC000124554441   -0.0400
     26 C26       -12.1004   -2.2154   57.3875 C.ar    1  ZINC000124554441   -0.0600
     27 C27       -10.4628   -1.1451   53.2161 C.3     1  ZINC000124554441    0.1200
     28 H28        -2.7151    1.8437   49.5412 H       1  ZINC000124554441    0.0500
     29 H29        -1.7390    3.2956   49.8689 H       1  ZINC000124554441    0.0500
     30 H30        -1.4327    1.7943   50.7746 H       1  ZINC000124554441    0.0500
     31 H31        -3.6717    1.9714   51.8254 H       1  ZINC000124554441    0.0600
     32 H32        -2.6955    3.4234   52.1531 H       1  ZINC000124554441    0.0600
     33 H33        -4.7157    4.3883   51.4845 H       1  ZINC000124554441    0.0600
     34 H34        -3.8458    4.3160   49.9333 H       1  ZINC000124554441    0.0600
     35 H35        -6.0270    3.4178   49.4993 H       1  ZINC000124554441    0.0700
     36 H36        -4.9363    2.0144   49.5938 H       1  ZINC000124554441    0.0700
     37 H37        -5.7969    1.3078   51.6277 H       1  ZINC000124554441    0.0700
     38 H38        -6.2370    2.9563   52.1346 H       1  ZINC000124554441    0.0700
     39 H39        -8.0200    2.9146   50.3044 H       1  ZINC000124554441    0.0700
     40 H40        -7.6769    1.1773   50.1254 H       1  ZINC000124554441    0.0700
     41 H41        -8.8906    2.4600   52.4885 H       1  ZINC000124554441    0.4000
     42 H42       -10.1539    2.2361   53.8099 H       1  ZINC000124554441    0.0800
     43 H43       -11.3224    1.3897   52.7680 H       1  ZINC000124554441    0.0800
     44 H44       -10.9488    0.9068   55.7590 H       1  ZINC000124554441    0.0700
     45 H45       -12.2715    1.8444   55.0231 H       1  ZINC000124554441    0.0900
     46 H46       -12.9156   -0.5361   55.5430 H       1  ZINC000124554441    0.1000
     47 H47       -13.0575   -0.1358   53.8119 H       1  ZINC000124554441    0.0800
     48 H48       -13.8151   -3.7509   54.8895 H       1  ZINC000124554441    0.1500
     49 H49       -15.4220   -4.0739   56.7197 H       1  ZINC000124554441    0.1500
     50 H50       -11.1714   -1.6953   57.5687 H       1  ZINC000124554441    0.1500
     51 H51       -11.0018   -1.0760   52.2713 H       1  ZINC000124554441    0.0800
     52 H52        -9.7621   -1.9792   53.1793 H       1  ZINC000124554441    0.1000
@<TRIPOS>BOND
     1     1     2    1
     2     1    28    1
     3     1    29    1
     4     1    30    1
     5     2     3    1
     6     2    31    1
     7     2    32    1
     8     3     4    1
     9     3    33    1
    10     3    34    1
    11     4     5    1
    12     4    35    1
    13     4    36    1
    14     5     6    1
    15     5    37    1
    16     5    38    1
    17     6     7    1
    18     6    39    1
    19     6    40    1
    20     7     8   am
    21     7    41    1
    22     8     9    2
    23     8    10    1
    24    10    11    1
    25    10    27    1
    26    10    12    1
    27    12    13    1
    28    12    42    1
    29    12    43    1
    30    13    14    1
    31    13    44    1
    32    13    45    1
    33    14    15    1
    34    14    46    1
    35    14    47    1
    36    15    16   am
    37    15    27    1
    38    16    17    2
    39    16    18    1
    40    18    26   ar
    41    18    19   ar
    42    19    20   ar
    43    19    48    1
    44    20    21   ar
    45    20    49    1
    46    21    22    1
    47    21    24   ar
    48    22    23    3
    49    24    25    1
    50    24    26   ar
    51    26    50    1
    52    27    51    1
    53    27    52    1
@<TRIPOS>SUBSTRUCTURE
     1 ZINC000124554441        1 TEMP              0 ****  ****    0 ROOT


##########                                Name:    ZINC000583220082
##########                DOCK_Rotatable_Bonds:                   9
##########                         Heavy_Atoms:                  29
##########                    Molecular_Weight:             417.492
##########                DOCK_Rotatable_Bonds:                   9
##########                       Formal_Charge:          -0.0400006
##########                     HBond_Acceptors:                  11
##########                        HBond_Donors:                   3
##########                         Heavy_Atoms:                  29
##########                          Grid_Score:          -33.957706
##########                     Grid_vdw_energy:          -33.069439
##########                      Grid_es_energy:           -0.888266
##########           Internal_energy_repulsive:           16.569006

@<TRIPOS>MOLECULE
ZINC000583220082
 52 54 1 0 0
SMALL
USER_CHARGES


@<TRIPOS>ATOM
      1 C1          3.5036    0.8398   48.6015 C.3     1  ZINC000583220082    0.0800
      2 N2          2.9358    1.3875   49.8359 N.am    1  ZINC000583220082   -0.6300
      3 C3          3.0326    0.6299   51.0860 C.3     1  ZINC000583220082    0.0800
      4 C4          2.3243    2.5885   49.8214 C.2     1  ZINC000583220082    0.5100
      5 O5          2.2428    3.2151   48.7861 O.2     1  ZINC000583220082   -0.5300
      6 C6          1.7418    3.1528   51.0915 C.3     1  ZINC000583220082   -0.1000
      7 C7          0.2669    3.3976   50.9025 C.ar    1  ZINC000583220082   -0.0800
      8 C8         -0.2656    4.6449   51.1730 C.ar    1  ZINC000583220082   -0.0800
      9 C9         -1.6167    4.8727   51.0008 C.ar    1  ZINC000583220082   -0.1400
     10 C10        -2.4411    3.8473   50.5547 C.ar    1  ZINC000583220082    0.1400
     11 N11        -3.8085    4.0744   50.3789 N.am    1  ZINC000583220082   -0.6400
     12 C12        -4.6585    3.9003   51.4103 C.2     1  ZINC000583220082    0.5100
     13 O13        -4.2362    3.5465   52.4918 O.2     1  ZINC000583220082   -0.4900
     14 C14        -6.1203    4.1431   51.2224 C.2     1  ZINC000583220082    0.5100
     15 O15        -6.5504    5.2779   51.2106 O.2     1  ZINC000583220082   -0.5100
     16 N16        -6.9616    3.1019   51.0658 N.am    1  ZINC000583220082   -0.5800
     17 C17        -6.4622    1.7186   51.0830 C.3     1  ZINC000583220082    0.0600
     18 C18        -7.3004    0.9108   52.0796 C.3     1  ZINC000583220082    0.0300
     19 N19        -8.7238    1.0532   51.7459 N.3     1  ZINC000583220082   -0.4300
     20 C20        -9.5010    0.2120   52.5207 C.2     1  ZINC000583220082    0.2900
     21 N21       -10.1524   -0.8625   52.1286 N.2     1  ZINC000583220082   -0.5700
     22 C22       -10.8324   -1.5131   53.0499 C.2     1  ZINC000583220082    0.5400
     23 N23       -11.5552   -2.6633   52.7359 N.pl3   1  ZINC000583220082   -0.8200
     24 N24       -10.8055   -1.0430   54.2684 N.2     1  ZINC000583220082   -0.5500
     25 S25        -9.8195    0.3397   54.2088 S.3     1  ZINC000583220082    0.2000
     26 C26        -9.1652    2.4481   51.8782 C.3     1  ZINC000583220082    0.0500
     27 C27        -8.4043    3.3187   50.8794 C.3     1  ZINC000583220082    0.1100
     28 C28        -1.9027    2.5956   50.2835 C.ar    1  ZINC000583220082   -0.1200
     29 C29        -0.5499    2.3761   50.4533 C.ar    1  ZINC000583220082   -0.0800
     30 H30         2.7487    0.2453   48.0868 H       1  ZINC000583220082    0.0500
     31 H31         3.8252    1.6568   47.9555 H       1  ZINC000583220082    0.0800
     32 H32         4.3594    0.2096   48.8436 H       1  ZINC000583220082    0.0700
     33 H33         3.5558   -0.3086   50.9025 H       1  ZINC000583220082    0.0800
     34 H34         3.5828    1.2144   51.8234 H       1  ZINC000583220082    0.0600
     35 H35         2.0314    0.4201   51.4622 H       1  ZINC000583220082    0.0600
     36 H36         1.8910    2.4440   51.9060 H       1  ZINC000583220082    0.1000
     37 H37         2.2381    4.0929   51.3326 H       1  ZINC000583220082    0.1000
     38 H38         0.3758    5.4416   51.5197 H       1  ZINC000583220082    0.1300
     39 H39        -2.0321    5.8468   51.2129 H       1  ZINC000583220082    0.1300
     40 H40        -4.1461    4.3572   49.5146 H       1  ZINC000583220082    0.4200
     41 H41        -6.5559    1.2830   50.0882 H       1  ZINC000583220082    0.0900
     42 H42        -5.4171    1.7105   51.3924 H       1  ZINC000583220082    0.1700
     43 H43        -7.0173   -0.1404   52.0249 H       1  ZINC000583220082    0.1100
     44 H44        -7.1244    1.2832   53.0888 H       1  ZINC000583220082    0.0700
     45 H45       -11.3245   -3.1813   51.9490 H       1  ZINC000583220082    0.4200
     46 H46       -12.2887   -2.9454   53.3045 H       1  ZINC000583220082    0.4200
     47 H47       -10.2347    2.5117   51.6773 H       1  ZINC000583220082    0.1100
     48 H48        -8.9632    2.7991   52.8901 H       1  ZINC000583220082    0.0600
     49 H49        -8.6438    4.3680   51.0515 H       1  ZINC000583220082    0.1100
     50 H50        -8.6824    3.0385   49.8634 H       1  ZINC000583220082    0.0900
     51 H51        -2.5407    1.7962   49.9365 H       1  ZINC000583220082    0.1400
     52 H52        -0.1307    1.4034   50.2426 H       1  ZINC000583220082    0.1300
@<TRIPOS>BOND
     1     1     2    1
     2     1    30    1
     3     1    31    1
     4     1    32    1
     5     2     3    1
     6     2     4   am
     7     3    33    1
     8     3    34    1
     9     3    35    1
    10     4     5    2
    11     4     6    1
    12     6     7    1
    13     6    36    1
    14     6    37    1
    15     7    29   ar
    16     7     8   ar
    17     8     9   ar
    18     8    38    1
    19     9    10   ar
    20     9    39    1
    21    10    11    1
    22    10    28   ar
    23    11    12   am
    24    11    40    1
    25    12    13    2
    26    12    14    1
    27    14    15    2
    28    14    16   am
    29    16    27    1
    30    16    17    1
    31    17    18    1
    32    17    41    1
    33    17    42    1
    34    18    19    1
    35    18    43    1
    36    18    44    1
    37    19    20    1
    38    19    26    1
    39    20    25    1
    40    20    21    2
    41    21    22    1
    42    22    23    1
    43    22    24    2
    44    23    45    1
    45    23    46    1
    46    24    25    1
    47    26    27    1
    48    26    47    1
    49    26    48    1
    50    27    49    1
    51    27    50    1
    52    28    29   ar
    53    28    51    1
    54    29    52    1
@<TRIPOS>SUBSTRUCTURE
     1 ZINC000583220082        1 TEMP              0 ****  ****    0 ROOT


##########                                Name:    ZINC000432058199
##########                DOCK_Rotatable_Bonds:                   5
##########                         Heavy_Atoms:                  30
##########                    Molecular_Weight:             406.441
##########                DOCK_Rotatable_Bonds:                   5
##########                       Formal_Charge:        -4.02331e-07
##########                     HBond_Acceptors:                   8
##########                        HBond_Donors:                   1
##########                         Heavy_Atoms:                  30
##########                          Grid_Score:          -33.957455
##########                     Grid_vdw_energy:          -32.848717
##########                      Grid_es_energy:           -1.108739
##########           Internal_energy_repulsive:           15.212802

@<TRIPOS>MOLECULE
ZINC000432058199
 52 55 1 0 0
SMALL
USER_CHARGES


@<TRIPOS>ATOM
      1 C1         -8.5027    0.3059   63.9162 C.3     1  ZINC000432058199    0.0300
      2 O2         -8.9215   -0.6611   62.9509 O.3     1  ZINC000432058199   -0.3100
      3 C3         -9.8581   -0.2667   62.0487 C.ar    1  ZINC000432058199    0.1300
      4 C4        -10.3622    1.0258   62.0919 C.ar    1  ZINC000432058199   -0.1900
      5 C5        -11.3150    1.4311   61.1759 C.ar    1  ZINC000432058199   -0.0800
      6 C6        -11.7705    0.5528   60.2135 C.ar    1  ZINC000432058199   -0.1100
      7 C7        -11.2690   -0.7466   60.1630 C.ar    1  ZINC000432058199    0.0100
      8 C8        -11.7567   -1.6929   59.1287 C.2     1  ZINC000432058199    0.2100
      9 N9        -11.3434   -2.9192   58.9420 N.2     1  ZINC000432058199   -0.3700
     10 O10       -11.9423   -3.4245   58.0161 O.3     1  ZINC000432058199    0.1200
     11 C11       -12.8179   -2.5523   57.5069 C.2     1  ZINC000432058199    0.1600
     12 C12       -13.7525   -2.7944   56.3498 C.3     1  ZINC000432058199    0.2500
     13 H13       -14.6969   -2.2817   56.5321 H       1  ZINC000432058199    0.1500
     14 C14       -14.0071   -4.2962   56.2054 C.3     1  ZINC000432058199   -0.1700
     15 N15       -13.1479   -2.2810   55.1180 N.am    1  ZINC000432058199   -0.5800
     16 C16       -13.7851   -1.5031   54.2355 C.2     1  ZINC000432058199    0.7000
     17 O17       -14.9378   -1.1398   54.3640 O.2     1  ZINC000432058199   -0.5100
     18 N18       -13.0075   -1.1679   53.1904 N.am    1  ZINC000432058199   -0.7200
     19 C19       -11.6990   -1.8056   53.4171 C.3     1  ZINC000432058199    0.1400
     20 H20       -11.4724   -2.5108   52.6174 H       1  ZINC000432058199    0.1400
     21 C21       -10.6142   -0.7654   53.5278 C.ar    1  ZINC000432058199   -0.1000
     22 C22        -9.6324   -0.6848   52.5578 C.ar    1  ZINC000432058199   -0.1000
     23 C23        -8.6373    0.2693   52.6594 C.ar    1  ZINC000432058199   -0.0800
     24 C24        -7.5668    0.3570   51.6024 C.3     1  ZINC000432058199   -0.1200
     25 C25        -8.6243    1.1432   53.7304 C.ar    1  ZINC000432058199   -0.1100
     26 C26        -9.6063    1.0627   54.7001 C.ar    1  ZINC000432058199   -0.0800
     27 C27        -9.5919    2.0152   55.8679 C.3     1  ZINC000432058199   -0.1200
     28 C28       -10.6038    0.1115   54.5963 C.ar    1  ZINC000432058199   -0.1000
     29 C29       -11.8793   -2.5293   54.7368 C.2     1  ZINC000432058199    0.5300
     30 O30       -11.0556   -3.1973   55.3242 O.2     1  ZINC000432058199   -0.4500
     31 N31       -12.7157   -1.4501   58.2070 N.2     1  ZINC000432058199   -0.4500
     32 C32       -10.3055   -1.1529   61.0823 C.ar    1  ZINC000432058199   -0.1200
     33 H33        -7.7547   -0.1373   64.5736 H       1  ZINC000432058199    0.1000
     34 H34        -8.0723    1.1670   63.4047 H       1  ZINC000432058199    0.0600
     35 H35        -9.3615    0.6257   64.5063 H       1  ZINC000432058199    0.0600
     36 H36       -10.0093    1.7166   62.8433 H       1  ZINC000432058199    0.1400
     37 H37       -11.7046    2.4378   61.2139 H       1  ZINC000432058199    0.1400
     38 H38       -12.5154    0.8723   59.4998 H       1  ZINC000432058199    0.1400
     39 H39       -13.0627   -4.8089   56.0230 H       1  ZINC000432058199    0.0900
     40 H40       -14.4569   -4.6782   57.1218 H       1  ZINC000432058199    0.0900
     41 H41       -14.6831   -4.4712   55.3684 H       1  ZINC000432058199    0.0900
     42 H42       -13.2592   -0.6146   52.4345 H       1  ZINC000432058199    0.4500
     43 H43        -9.6428   -1.3673   51.7209 H       1  ZINC000432058199    0.1200
     44 H44        -7.8883    1.0394   50.8155 H       1  ZINC000432058199    0.0700
     45 H45        -6.6441    0.7269   52.0495 H       1  ZINC000432058199    0.0700
     46 H46        -7.3938   -0.6317   51.1776 H       1  ZINC000432058199    0.0700
     47 H47        -7.8468    1.8886   53.8098 H       1  ZINC000432058199    0.1300
     48 H48       -10.1680    2.9059   55.6174 H       1  ZINC000432058199    0.0700
     49 H49       -10.0334    1.5296   56.7381 H       1  ZINC000432058199    0.0700
     50 H50        -8.5637    2.2988   56.0928 H       1  ZINC000432058199    0.0700
     51 H51       -11.3710    0.0486   55.3538 H       1  ZINC000432058199    0.1300
     52 H52        -9.9139   -2.1588   61.0473 H       1  ZINC000432058199    0.1400
@<TRIPOS>BOND
     1     1     2    1
     2     1    33    1
     3     1    34    1
     4     1    35    1
     5     2     3    1
     6     3    32   ar
     7     3     4   ar
     8     4     5   ar
     9     4    36    1
    10     5     6   ar
    11     5    37    1
    12     6     7   ar
    13     6    38    1
    14     7     8    1
    15     7    32   ar
    16     8    31    1
    17     8     9    2
    18     9    10    1
    19    10    11    1
    20    11    12    1
    21    11    31    2
    22    12    13    1
    23    12    14    1
    24    12    15    1
    25    14    39    1
    26    14    40    1
    27    14    41    1
    28    15    29   am
    29    15    16   am
    30    16    17    2
    31    16    18   am
    32    18    19    1
    33    18    42    1
    34    19    20    1
    35    19    21    1
    36    19    29    1
    37    21    28   ar
    38    21    22   ar
    39    22    23   ar
    40    22    43    1
    41    23    24    1
    42    23    25   ar
    43    24    44    1
    44    24    45    1
    45    24    46    1
    46    25    26   ar
    47    25    47    1
    48    26    27    1
    49    26    28   ar
    50    27    48    1
    51    27    49    1
    52    27    50    1
    53    28    51    1
    54    29    30    2
    55    32    52    1
@<TRIPOS>SUBSTRUCTURE
     1 ZINC000432058199        1 TEMP              0 ****  ****    0 ROOT


##########                                Name:    ZINC000185598309
##########                DOCK_Rotatable_Bonds:                  14
##########                         Heavy_Atoms:                  25
##########                    Molecular_Weight:             347.457
##########                DOCK_Rotatable_Bonds:                  14
##########                       Formal_Charge:               -0.02
##########                     HBond_Acceptors:                   6
##########                        HBond_Donors:                   4
##########                         Heavy_Atoms:                  25
##########                          Grid_Score:          -33.950584
##########                     Grid_vdw_energy:          -32.064629
##########                      Grid_es_energy:           -1.885955
##########           Internal_energy_repulsive:           17.531050

@<TRIPOS>MOLECULE
ZINC000185598309
 54 54 1 0 0
SMALL
USER_CHARGES


@<TRIPOS>ATOM
      1 C1         -1.1301    2.8926   51.4221 C.3     1  ZINC000185598309   -0.1300
      2 C2         -1.9032    3.3192   50.2009 C.2     1  ZINC000185598309   -0.1600
      3 C3         -3.1226    2.8798   50.0110 C.2     1  ZINC000185598309   -0.1600
      4 C4         -3.7531    1.9490   51.0146 C.3     1  ZINC000185598309   -0.0900
      5 C5         -5.2702    2.1467   51.0106 C.3     1  ZINC000185598309    0.1700
      6 H6         -5.6568    1.9714   50.0066 H       1  ZINC000185598309    0.1000
      7 C7         -5.5992    3.5775   51.4414 C.3     1  ZINC000185598309    0.0600
      8 O8         -5.0888    3.8085   52.7559 O.3     1  ZINC000185598309   -0.5700
      9 N9         -5.8883    1.2015   51.9438 N.am    1  ZINC000185598309   -0.7300
     10 C10        -7.1444    0.7638   51.7266 C.2     1  ZINC000185598309    0.7000
     11 O11        -7.7640    1.1523   50.7553 O.2     1  ZINC000185598309   -0.5900
     12 N12        -7.7134   -0.1045   52.5860 N.am    1  ZINC000185598309   -0.7400
     13 C13        -9.0795   -0.5789   52.3507 C.3     1  ZINC000185598309    0.1800
     14 C14        -9.9311   -0.2754   53.5565 C.ar    1  ZINC000185598309   -0.0900
     15 C15        -9.6983    0.8693   54.2959 C.ar    1  ZINC000185598309   -0.1100
     16 C16       -10.4774    1.1512   55.4033 C.ar    1  ZINC000185598309   -0.1000
     17 C17       -11.4910    0.2895   55.7737 C.ar    1  ZINC000185598309   -0.1100
     18 C18       -11.7276   -0.8612   55.0327 C.ar    1  ZINC000185598309    0.1400
     19 N19       -12.7541   -1.7360   55.4050 N.am    1  ZINC000185598309   -0.6800
     20 C20       -12.5636   -2.6074   56.4155 C.2     1  ZINC000185598309    0.5200
     21 O21       -11.5022   -2.6332   57.0019 O.2     1  ZINC000185598309   -0.5200
     22 C22       -13.6692   -3.5497   56.8164 C.3     1  ZINC000185598309   -0.1100
     23 H23       -13.2793   -4.2919   57.5130 H       1  ZINC000185598309    0.1000
     24 C24       -14.2147   -4.2545   55.5728 C.3     1  ZINC000185598309   -0.1500
     25 C25       -14.7935   -2.7598   57.4894 C.3     1  ZINC000185598309   -0.1100
     26 C26       -15.5599   -3.6768   58.4447 C.3     1  ZINC000185598309   -0.1600
     27 C27       -10.9471   -1.1385   53.9183 C.ar    1  ZINC000185598309   -0.1300
     28 H28        -0.1435    3.3558   51.4077 H       1  ZINC000185598309    0.0600
     29 H29        -1.6653    3.2056   52.3186 H       1  ZINC000185598309    0.0600
     30 H30        -1.0223    1.8080   51.4233 H       1  ZINC000185598309    0.0600
     31 H31        -1.4519    3.9873   49.4822 H       1  ZINC000185598309    0.1100
     32 H32        -3.6761    3.1845   49.1350 H       1  ZINC000185598309    0.1100
     33 H33        -3.5203    0.9176   50.7499 H       1  ZINC000185598309    0.0900
     34 H34        -3.3609    2.1665   52.0082 H       1  ZINC000185598309    0.0800
     35 H35        -5.1420    4.2807   50.7453 H       1  ZINC000185598309    0.0500
     36 H36        -6.6802    3.7173   51.4415 H       1  ZINC000185598309    0.0500
     37 H37        -5.4729    3.2352   53.4334 H       1  ZINC000185598309    0.3800
     38 H38        -5.3935    0.8906   52.7181 H       1  ZINC000185598309    0.4000
     39 H39        -7.2187   -0.4153   53.3602 H       1  ZINC000185598309    0.4000
     40 H40        -9.4936   -0.0752   51.4773 H       1  ZINC000185598309    0.0700
     41 H41        -9.0656   -1.6549   52.1772 H       1  ZINC000185598309    0.0800
     42 H42        -8.9063    1.5448   54.0083 H       1  ZINC000185598309    0.1300
     43 H43       -10.2926    2.0459   55.9793 H       1  ZINC000185598309    0.1300
     44 H44       -12.0987    0.5099   56.6388 H       1  ZINC000185598309    0.1300
     45 H45       -13.6029   -1.7155   54.9360 H       1  ZINC000185598309    0.4100
     46 H46       -13.4137   -4.8173   55.0933 H       1  ZINC000185598309    0.0600
     47 H47       -15.0144   -4.9360   55.8628 H       1  ZINC000185598309    0.0800
     48 H48       -14.6045   -3.5123   54.8763 H       1  ZINC000185598309    0.0600
     49 H49       -14.3678   -1.9267   58.0487 H       1  ZINC000185598309    0.0700
     50 H50       -15.4741   -2.3770   56.7289 H       1  ZINC000185598309    0.0700
     51 H51       -15.9856   -4.5100   57.8854 H       1  ZINC000185598309    0.0600
     52 H52       -14.8793   -4.0597   59.2052 H       1  ZINC000185598309    0.0600
     53 H53       -16.3609   -3.1141   58.9241 H       1  ZINC000185598309    0.0600
     54 H54       -11.1287   -2.0325   53.3401 H       1  ZINC000185598309    0.1300
@<TRIPOS>BOND
     1     1     2    1
     2     1    28    1
     3     1    29    1
     4     1    30    1
     5     2     3    2
     6     2    31    1
     7     3     4    1
     8     3    32    1
     9     4     5    1
    10     4    33    1
    11     4    34    1
    12     5     6    1
    13     5     7    1
    14     5     9    1
    15     7     8    1
    16     7    35    1
    17     7    36    1
    18     8    37    1
    19     9    10   am
    20     9    38    1
    21    10    11    2
    22    10    12   am
    23    12    13    1
    24    12    39    1
    25    13    14    1
    26    13    40    1
    27    13    41    1
    28    14    27   ar
    29    14    15   ar
    30    15    16   ar
    31    15    42    1
    32    16    17   ar
    33    16    43    1
    34    17    18   ar
    35    17    44    1
    36    18    19    1
    37    18    27   ar
    38    19    20   am
    39    19    45    1
    40    20    21    2
    41    20    22    1
    42    22    23    1
    43    22    24    1
    44    22    25    1
    45    24    46    1
    46    24    47    1
    47    24    48    1
    48    25    26    1
    49    25    49    1
    50    25    50    1
    51    26    51    1
    52    26    52    1
    53    26    53    1
    54    27    54    1
@<TRIPOS>SUBSTRUCTURE
     1 ZINC000185598309        1 TEMP              0 ****  ****    0 ROOT


##########                                Name:    ZINC000375302598
##########                DOCK_Rotatable_Bonds:                   8
##########                         Heavy_Atoms:                  27
##########                    Molecular_Weight:             368.479
##########                DOCK_Rotatable_Bonds:                   8
##########                       Formal_Charge:               -0.02
##########                     HBond_Acceptors:                   6
##########                        HBond_Donors:                   1
##########                         Heavy_Atoms:                  27
##########                          Grid_Score:          -33.940952
##########                     Grid_vdw_energy:          -32.940304
##########                      Grid_es_energy:           -1.000650
##########           Internal_energy_repulsive:            8.730631

@<TRIPOS>MOLECULE
ZINC000375302598
 55 58 1 0 0
SMALL
USER_CHARGES


@<TRIPOS>ATOM
      1 C1         -9.5856    0.1819   62.9254 C.3     1  ZINC000375302598   -0.1500
      2 C2         -9.9679    0.5482   61.4899 C.3     1  ZINC000375302598   -0.0300
      3 C3        -10.7688   -0.5740   60.8815 C.2     1  ZINC000375302598    0.1800
      4 N4        -12.0287   -0.5281   60.5211 N.2     1  ZINC000375302598   -0.4700
      5 C5        -12.3109   -1.7498   60.0345 C.2     1  ZINC000375302598    0.1800
      6 C6        -13.6386   -2.2073   59.4876 C.3     1  ZINC000375302598    0.1500
      7 N7        -13.4243   -2.9457   58.2358 N.3     1  ZINC000375302598   -0.5300
      8 C8        -14.5710   -3.8115   57.9326 C.3     1  ZINC000375302598    0.0500
      9 C9        -14.2533   -4.6700   56.7063 C.3     1  ZINC000375302598   -0.1100
     10 C10       -13.9501   -3.7572   55.5149 C.3     1  ZINC000375302598   -0.1300
     11 C11       -12.7836   -2.8327   55.8742 C.3     1  ZINC000375302598    0.1500
     12 H12       -11.8930   -3.4298   56.0699 H       1  ZINC000375302598    0.1000
     13 N13       -12.5238   -1.9175   54.7602 N.am    1  ZINC000375302598   -0.7300
     14 C14       -11.6740   -2.2762   53.7775 C.2     1  ZINC000375302598    0.5200
     15 O15       -11.1231   -3.3560   53.8163 O.2     1  ZINC000375302598   -0.5300
     16 C16       -11.4080   -1.3355   52.6306 C.3     1  ZINC000375302598   -0.1100
     17 C17       -10.1083   -0.5708   52.8891 C.3     1  ZINC000375302598   -0.1200
     18 H18        -9.1913   -1.1046   52.6394 H       1  ZINC000375302598    0.1200
     19 C19       -10.0712    0.3726   54.0930 C.3     1  ZINC000375302598   -0.1700
     20 C20       -10.1250    0.9438   52.6739 C.3     1  ZINC000375302598   -0.1100
     21 H21       -11.0620    1.3958   52.3484 H       1  ZINC000375302598    0.1100
     22 C22        -8.8725    1.5844   52.1336 C.ar    1  ZINC000375302598   -0.0500
     23 C23        -7.6327    1.0889   52.4924 C.ar    1  ZINC000375302598   -0.1200
     24 C24        -6.4838    1.6765   51.9968 C.ar    1  ZINC000375302598   -0.1200
     25 C25        -6.5745    2.7590   51.1421 C.ar    1  ZINC000375302598   -0.1300
     26 C26        -7.8141    3.2539   50.7826 C.ar    1  ZINC000375302598   -0.1200
     27 C27        -8.9632    2.6637   51.2748 C.ar    1  ZINC000375302598   -0.1100
     28 C28       -13.1438   -2.0274   57.1247 C.3     1  ZINC000375302598    0.0500
     29 N29       -11.2283   -2.4632   60.1223 N.2     1  ZINC000375302598   -0.3800
     30 O30       -10.3291   -1.8045   60.6009 O.3     1  ZINC000375302598    0.0800
     31 H31        -8.9883   -0.7299   62.9210 H       1  ZINC000375302598    0.0600
     32 H32        -9.0064    0.9936   63.3655 H       1  ZINC000375302598    0.0800
     33 H33       -10.4898    0.0211   63.5125 H       1  ZINC000375302598    0.0600
     34 H34       -10.5652    1.4599   61.4943 H       1  ZINC000375302598    0.1100
     35 H35        -9.0636    0.7090   60.9029 H       1  ZINC000375302598    0.1000
     36 H36       -14.1262   -2.8574   60.2140 H       1  ZINC000375302598    0.0700
     37 H37       -14.2702   -1.3402   59.2945 H       1  ZINC000375302598    0.1100
     38 H38       -14.7733   -4.4584   58.7864 H       1  ZINC000375302598    0.0800
     39 H39       -15.4468   -3.1959   57.7280 H       1  ZINC000375302598    0.0400
     40 H40       -13.3858   -5.2961   56.9151 H       1  ZINC000375302598    0.0700
     41 H41       -15.1105   -5.3014   56.4721 H       1  ZINC000375302598    0.0700
     42 H42       -13.6810   -4.3640   54.6503 H       1  ZINC000375302598    0.0700
     43 H43       -14.8306   -3.1587   55.2813 H       1  ZINC000375302598    0.0600
     44 H44       -12.9634   -1.0534   54.7297 H       1  ZINC000375302598    0.4000
     45 H45       -11.3162   -1.9062   51.7065 H       1  ZINC000375302598    0.1000
     46 H46       -12.2334   -0.6292   52.5410 H       1  ZINC000375302598    0.1000
     47 H47       -10.9726    0.4485   54.7009 H       1  ZINC000375302598    0.1000
     48 H48        -9.1296    0.4599   54.6352 H       1  ZINC000375302598    0.1000
     49 H49        -7.5619    0.2430   53.1601 H       1  ZINC000375302598    0.1200
     50 H50        -5.5153    1.2898   52.2777 H       1  ZINC000375302598    0.1200
     51 H51        -5.6768    3.2185   50.7554 H       1  ZINC000375302598    0.1200
     52 H52        -7.8850    4.0999   50.1151 H       1  ZINC000375302598    0.1200
     53 H53        -9.9317    3.0504   50.9939 H       1  ZINC000375302598    0.1200
     54 H54       -14.0264   -1.4201   56.9239 H       1  ZINC000375302598    0.0400
     55 H55       -12.3097   -1.3785   57.3916 H       1  ZINC000375302598    0.0900
@<TRIPOS>BOND
     1     1     2    1
     2     1    31    1
     3     1    32    1
     4     1    33    1
     5     2     3    1
     6     2    34    1
     7     2    35    1
     8     3    30    1
     9     3     4    2
    10     4     5    1
    11     5     6    1
    12     5    29    2
    13     6     7    1
    14     6    36    1
    15     6    37    1
    16     7    28    1
    17     7     8    1
    18     8     9    1
    19     8    38    1
    20     8    39    1
    21     9    10    1
    22     9    40    1
    23     9    41    1
    24    10    11    1
    25    10    42    1
    26    10    43    1
    27    11    12    1
    28    11    13    1
    29    11    28    1
    30    13    14   am
    31    13    44    1
    32    14    15    2
    33    14    16    1
    34    16    17    1
    35    16    45    1
    36    16    46    1
    37    17    18    1
    38    17    20    1
    39    17    19    1
    40    19    20    1
    41    19    47    1
    42    19    48    1
    43    20    21    1
    44    20    22    1
    45    22    27   ar
    46    22    23   ar
    47    23    24   ar
    48    23    49    1
    49    24    25   ar
    50    24    50    1
    51    25    26   ar
    52    25    51    1
    53    26    27   ar
    54    26    52    1
    55    27    53    1
    56    28    54    1
    57    28    55    1
    58    29    30    1
@<TRIPOS>SUBSTRUCTURE
     1 ZINC000375302598        1 TEMP              0 ****  ****    0 ROOT


##########                                Name:    ZINC000150894060
##########                DOCK_Rotatable_Bonds:                  10
##########                         Heavy_Atoms:                  27
##########                    Molecular_Weight:              366.42
##########                DOCK_Rotatable_Bonds:                  10
##########                       Formal_Charge:        -6.70552e-07
##########                     HBond_Acceptors:                   7
##########                        HBond_Donors:                   2
##########                         Heavy_Atoms:                  27
##########                          Grid_Score:          -33.940781
##########                     Grid_vdw_energy:          -31.588427
##########                      Grid_es_energy:           -2.352354
##########           Internal_energy_repulsive:           11.759542

@<TRIPOS>MOLECULE
ZINC000150894060
 49 51 1 0 0
SMALL
USER_CHARGES


@<TRIPOS>ATOM
      1 C1          0.7740    4.5831   49.6539 C.3     1  ZINC000150894060   -0.1000
      2 C2          1.0063    3.3786   50.5294 C.2     1  ZINC000150894060   -0.0800
      3 C3          0.0582    2.6735   51.2136 C.2     1  ZINC000150894060   -0.1000
      4 C4         -1.3811    2.9550   51.2292 C.2     1  ZINC000150894060    0.6100
      5 O5         -1.8617    3.7134   50.4077 O.2     1  ZINC000150894060   -0.5100
      6 N6         -2.1714    2.3738   52.1533 N.am    1  ZINC000150894060   -0.7200
      7 C7         -3.6094    2.6536   52.1677 C.3     1  ZINC000150894060    0.1200
      8 C8         -4.3245    1.6986   51.2098 C.3     1  ZINC000150894060   -0.1500
      9 C9         -5.8123    2.0510   51.1547 C.3     1  ZINC000150894060    0.1200
     10 N10        -6.3888    1.9471   52.4975 N.am    1  ZINC000150894060   -0.7300
     11 C11        -7.6860    1.6148   52.6501 C.2     1  ZINC000150894060    0.5600
     12 O12        -8.3772    1.3997   51.6737 O.2     1  ZINC000150894060   -0.5300
     13 C13        -8.2682    1.5117   54.0052 C.ar    1  ZINC000150894060   -0.1300
     14 C14        -7.5801    2.0270   55.1048 C.ar    1  ZINC000150894060   -0.0900
     15 C15        -8.1293    1.9280   56.3665 C.ar    1  ZINC000150894060   -0.0900
     16 C16        -9.3591    1.3192   56.5433 C.ar    1  ZINC000150894060   -0.0800
     17 C17        -9.9525    1.2141   57.9244 C.3     1  ZINC000150894060    0.1700
     18 N18        -9.7167   -0.1305   58.4562 N.pl3   1  ZINC000150894060   -0.3700
     19 C19       -10.4909   -1.2152   58.2439 C.2     1  ZINC000150894060    0.0500
     20 C20        -9.9331   -2.2558   58.9051 C.2     1  ZINC000150894060   -0.2700
     21 C21        -8.7784   -1.7911   59.5431 C.2     1  ZINC000150894060    0.0400
     22 N22        -8.6444   -0.5186   59.2698 N.2     1  ZINC000150894060   -0.2900
     23 C23       -10.0465    0.8067   55.4574 C.ar    1  ZINC000150894060   -0.1100
     24 C24        -9.5111    0.9038   54.1897 C.ar    1  ZINC000150894060   -0.0600
     25 O25         0.6774    1.6724   51.8728 O.3     1  ZINC000150894060   -0.1700
     26 C26         1.9925    1.7237   51.6251 C.2     1  ZINC000150894060    0.0000
     27 C27         2.2384    2.7608   50.7945 C.2     1  ZINC000150894060   -0.2300
     28 H28         0.5843    4.2577   48.6311 H       1  ZINC000150894060    0.0800
     29 H29        -0.0868    5.1404   50.0234 H       1  ZINC000150894060    0.0900
     30 H30         1.6566    5.2225   49.6739 H       1  ZINC000150894060    0.0700
     31 H31        -1.7882    1.7701   52.8088 H       1  ZINC000150894060    0.4100
     32 H32        -3.9967    2.5135   53.1769 H       1  ZINC000150894060    0.0800
     33 H33        -3.7826    3.6823   51.8517 H       1  ZINC000150894060    0.0800
     34 H34        -3.8919    1.7917   50.2137 H       1  ZINC000150894060    0.0800
     35 H35        -4.2065    0.6741   51.5629 H       1  ZINC000150894060    0.0800
     36 H36        -5.9310    3.0698   50.7861 H       1  ZINC000150894060    0.0800
     37 H37        -6.3247    1.3603   50.4850 H       1  ZINC000150894060    0.0800
     38 H38        -5.8369    2.1176   53.2768 H       1  ZINC000150894060    0.4000
     39 H39        -6.6198    2.5019   54.9683 H       1  ZINC000150894060    0.1300
     40 H40        -7.5978    2.3264   57.2182 H       1  ZINC000150894060    0.1300
     41 H41        -9.4847    1.9504   58.5780 H       1  ZINC000150894060    0.1100
     42 H42       -11.0250    1.4021   57.8744 H       1  ZINC000150894060    0.1000
     43 H43       -11.3942   -1.2470   57.6527 H       1  ZINC000150894060    0.1700
     44 H44       -10.3127   -3.2665   58.9351 H       1  ZINC000150894060    0.1500
     45 H45        -8.1101   -2.3819   60.1521 H       1  ZINC000150894060    0.1800
     46 H46       -11.0062    0.3329   55.6020 H       1  ZINC000150894060    0.1300
     47 H47       -10.0489    0.5037   53.3429 H       1  ZINC000150894060    0.1400
     48 H48         2.7339    1.0452   52.0208 H       1  ZINC000150894060    0.2100
     49 H49         3.2025    3.0616   50.4120 H       1  ZINC000150894060    0.1600
@<TRIPOS>BOND
     1     1     2    1
     2     1    28    1
     3     1    29    1
     4     1    30    1
     5     2    27    1
     6     2     3    2
     7     3     4    1
     8     3    25    1
     9     4     5    2
    10     4     6   am
    11     6     7    1
    12     6    31    1
    13     7     8    1
    14     7    32    1
    15     7    33    1
    16     8     9    1
    17     8    34    1
    18     8    35    1
    19     9    10    1
    20     9    36    1
    21     9    37    1
    22    10    11   am
    23    10    38    1
    24    11    12    2
    25    11    13    1
    26    13    24   ar
    27    13    14   ar
    28    14    15   ar
    29    14    39    1
    30    15    16   ar
    31    15    40    1
    32    16    17    1
    33    16    23   ar
    34    17    18    1
    35    17    41    1
    36    17    42    1
    37    18    22    1
    38    18    19    1
    39    19    20    2
    40    19    43    1
    41    20    21    1
    42    20    44    1
    43    21    22    2
    44    21    45    1
    45    23    24   ar
    46    23    46    1
    47    24    47    1
    48    25    26    1
    49    26    27    2
    50    26    48    1
    51    27    49    1
@<TRIPOS>SUBSTRUCTURE
     1 ZINC000150894060        1 TEMP              0 ****  ****    0 ROOT


##########                                Name:    ZINC001573443776
##########                DOCK_Rotatable_Bonds:                   8
##########                         Heavy_Atoms:                  28
##########                    Molecular_Weight:             386.457
##########                DOCK_Rotatable_Bonds:                   8
##########                       Formal_Charge:          0.00999954
##########                     HBond_Acceptors:                  10
##########                        HBond_Donors:                   3
##########                         Heavy_Atoms:                  28
##########                          Grid_Score:          -33.934170
##########                     Grid_vdw_energy:          -33.284985
##########                      Grid_es_energy:           -0.649186
##########           Internal_energy_repulsive:           33.296154

@<TRIPOS>MOLECULE
ZINC001573443776
 54 56 1 0 0
SMALL
USER_CHARGES


@<TRIPOS>ATOM
      1 C1         -2.4065    5.6549   54.0782 C.3     1  ZINC001573443776   -0.1800
      2 C2         -1.4865    4.7209   53.3351 C.2     1  ZINC001573443776    0.5100
      3 O3         -0.2845    4.8326   53.4530 O.2     1  ZINC001573443776   -0.5400
      4 N4         -1.9993    3.7614   52.5396 N.am    1  ZINC001573443776   -0.6100
      5 C5         -1.1152    2.8433   51.8088 C.3     1  ZINC001573443776    0.1100
      6 C6         -1.4861    2.8799   50.3228 C.3     1  ZINC001573443776   -0.1300
      7 C7         -2.9775    2.5747   50.1657 C.3     1  ZINC001573443776   -0.1000
      8 C8         -3.7977    3.6415   50.8947 C.3     1  ZINC001573443776   -0.1200
      9 H9         -3.5627    4.6240   50.4854 H       1  ZINC001573443776    0.1000
     10 C10        -5.2667    3.3586   50.7116 C.2     1  ZINC001573443776    0.5200
     11 O11        -6.0547    4.2764   50.6246 O.2     1  ZINC001573443776   -0.5300
     12 N12        -5.7045    2.0857   50.6445 N.am    1  ZINC001573443776   -0.7300
     13 C13        -7.1322    1.8108   50.4648 C.3     1  ZINC001573443776    0.1100
     14 C14        -7.7214    1.2939   51.7789 C.3     1  ZINC001573443776    0.1400
     15 H15        -8.7970    1.1589   51.6665 H       1  ZINC001573443776    0.0900
     16 C16        -7.0738   -0.0455   52.1362 C.3     1  ZINC001573443776   -0.1700
     17 N17        -7.4596    2.2629   52.8460 N.pl3   1  ZINC001573443776   -0.7200
     18 C18        -7.8416    1.9789   54.1511 C.ar    1  ZINC001573443776    0.4300
     19 C19        -6.9931    2.3118   55.2032 C.ar    1  ZINC001573443776   -0.2500
     20 C20        -7.3804    2.0264   56.4978 C.ar    1  ZINC001573443776    0.0100
     21 C21        -8.6194    1.4095   56.7010 C.ar    1  ZINC001573443776   -0.1400
     22 C22        -9.0810    1.0827   58.0733 C.2     1  ZINC001573443776    0.2400
     23 N23        -9.6347    1.9116   58.9361 N.2     1  ZINC001573443776   -0.3000
     24 N24        -9.8930    1.2482   60.0103 N.pl3   1  ZINC001573443776   -0.2300
     25 N25        -9.5207    0.0256   59.8557 N.2     1  ZINC001573443776   -0.0500
     26 N26        -9.0214   -0.1140   58.6746 N.2     1  ZINC001573443776   -0.2700
     27 C27        -9.4136    1.1067   55.5990 C.ar    1  ZINC001573443776    0.2300
     28 C28       -10.7506    0.4421   55.8035 C.3     1  ZINC001573443776   -0.1200
     29 N29        -9.0109    1.3995   54.3789 N.ar    1  ZINC001573443776   -0.5400
     30 C30        -3.4532    3.6098   52.3915 C.3     1  ZINC001573443776    0.1200
     31 H31        -2.5445    6.5670   53.4976 H       1  ZINC001573443776    0.0900
     32 H32        -3.3712    5.1708   54.2292 H       1  ZINC001573443776    0.0800
     33 H33        -1.9689    5.9026   55.0453 H       1  ZINC001573443776    0.1000
     34 H34        -0.0788    3.1564   51.9345 H       1  ZINC001573443776    0.1000
     35 H35        -1.2423    1.8309   52.1922 H       1  ZINC001573443776    0.0700
     36 H36        -1.2727    3.8696   49.9189 H       1  ZINC001573443776    0.0700
     37 H37        -0.9031    2.1331   49.7839 H       1  ZINC001573443776    0.0800
     38 H38        -3.2389    2.5759   49.1075 H       1  ZINC001573443776    0.0800
     39 H39        -3.1946    1.5954   50.5921 H       1  ZINC001573443776    0.0700
     40 H40        -5.0744    1.3517   50.7152 H       1  ZINC001573443776    0.4000
     41 H41        -7.6448    2.7273   50.1724 H       1  ZINC001573443776    0.0900
     42 H42        -7.2623    1.0580   49.6873 H       1  ZINC001573443776    0.0800
     43 H43        -7.2684   -0.7664   51.3422 H       1  ZINC001573443776    0.0700
     44 H44        -5.9980    0.0896   52.2486 H       1  ZINC001573443776    0.0700
     45 H45        -7.4935   -0.4138   53.0722 H       1  ZINC001573443776    0.0700
     46 H46        -7.0198    3.1029   52.6413 H       1  ZINC001573443776    0.4100
     47 H47        -6.0431    2.7873   55.0093 H       1  ZINC001573443776    0.1400
     48 H48        -6.7419    2.2733   57.3330 H       1  ZINC001573443776    0.1400
     49 H49       -10.3033    1.6130   60.8100 H       1  ZINC001573443776    0.4800
     50 H50       -11.5209    1.2041   55.9221 H       1  ZINC001573443776    0.0800
     51 H51       -10.9838   -0.1787   54.9385 H       1  ZINC001573443776    0.0800
     52 H52       -10.7141   -0.1799   56.6979 H       1  ZINC001573443776    0.1100
     53 H53        -3.7725    2.6598   52.8200 H       1  ZINC001573443776    0.0800
     54 H54        -3.9587    4.4307   52.9002 H       1  ZINC001573443776    0.0900
@<TRIPOS>BOND
     1     1     2    1
     2     1    31    1
     3     1    32    1
     4     1    33    1
     5     2     3    2
     6     2     4   am
     7     4    30    1
     8     4     5    1
     9     5     6    1
    10     5    34    1
    11     5    35    1
    12     6     7    1
    13     6    36    1
    14     6    37    1
    15     7     8    1
    16     7    38    1
    17     7    39    1
    18     8     9    1
    19     8    10    1
    20     8    30    1
    21    10    11    2
    22    10    12   am
    23    12    13    1
    24    12    40    1
    25    13    14    1
    26    13    41    1
    27    13    42    1
    28    14    15    1
    29    14    16    1
    30    14    17    1
    31    16    43    1
    32    16    44    1
    33    16    45    1
    34    17    18    1
    35    17    46    1
    36    18    29   ar
    37    18    19   ar
    38    19    20   ar
    39    19    47    1
    40    20    21   ar
    41    20    48    1
    42    21    22    1
    43    21    27   ar
    44    22    26    1
    45    22    23    2
    46    23    24    1
    47    24    25    1
    48    24    49    1
    49    25    26    2
    50    27    28    1
    51    27    29   ar
    52    28    50    1
    53    28    51    1
    54    28    52    1
    55    30    53    1
    56    30    54    1
@<TRIPOS>SUBSTRUCTURE
     1 ZINC001573443776        1 TEMP              0 ****  ****    0 ROOT


##########                                Name:    ZINC000467185792
##########                DOCK_Rotatable_Bonds:                   9
##########                         Heavy_Atoms:                  29
##########                    Molecular_Weight:             412.513
##########                DOCK_Rotatable_Bonds:                   9
##########                       Formal_Charge:                0.04
##########                     HBond_Acceptors:                   8
##########                        HBond_Donors:                   2
##########                         Heavy_Atoms:                  29
##########                          Grid_Score:          -33.925449
##########                     Grid_vdw_energy:          -33.825550
##########                      Grid_es_energy:           -0.099899
##########           Internal_energy_repulsive:           28.767904

@<TRIPOS>MOLECULE
ZINC000467185792
 53 55 1 0 0
SMALL
USER_CHARGES


@<TRIPOS>ATOM
      1 C1         -2.6059    2.5215   50.8640 C.3     1  ZINC000467185792   -0.1500
      2 C2         -3.8394    3.0662   51.5870 C.3     1  ZINC000467185792   -0.1200
      3 C3         -4.7906    3.6969   50.5679 C.3     1  ZINC000467185792    0.0600
      4 O4         -5.9851    4.1191   51.2291 O.3     1  ZINC000467185792   -0.3100
      5 C5         -6.8289    3.1449   51.6604 C.ar    1  ZINC000467185792    0.1400
      6 C6         -6.5964    1.8221   51.3095 C.ar    1  ZINC000467185792   -0.2100
      7 C7         -7.4507    0.8310   51.7459 C.ar    1  ZINC000467185792   -0.0400
      8 C8         -8.5484    1.1588   52.5401 C.ar    1  ZINC000467185792   -0.0600
      9 C9         -9.4688    0.0953   53.0115 C.2     1  ZINC000467185792    0.1400
     10 C10        -9.7334   -1.0022   52.2806 C.2     1  ZINC000467185792   -0.3000
     11 S11       -10.8618   -2.0083   53.1860 S.3     1  ZINC000467185792    0.2000
     12 C12       -10.8687   -0.8264   54.4917 C.2     1  ZINC000467185792    0.2800
     13 N13       -11.5972   -0.9349   55.6683 N.am    1  ZINC000467185792   -0.6100
     14 C14       -11.5114   -2.0548   56.4133 C.2     1  ZINC000467185792    0.5900
     15 O15       -10.7957   -2.9703   56.0546 O.2     1  ZINC000467185792   -0.4900
     16 C16       -12.2847   -2.1699   57.6623 C.2     1  ZINC000467185792   -0.2400
     17 C17       -13.6578   -2.4068   57.6445 C.2     1  ZINC000467185792    0.0800
     18 C18       -14.4027   -2.5548   56.3429 C.3     1  ZINC000467185792   -0.1200
     19 C19       -14.4274   -4.0290   55.9340 C.3     1  ZINC000467185792   -0.1400
     20 C20       -14.3246   -2.5038   58.8719 C.2     1  ZINC000467185792    0.0600
     21 C21       -15.8095   -2.7599   58.8968 C.3     1  ZINC000467185792   -0.0600
     22 C22       -16.2480   -3.0788   60.3275 C.3     1  ZINC000467185792   -0.1500
     23 N23       -13.6715   -2.3748   59.9947 N.2     1  ZINC000467185792   -0.1800
     24 N24       -12.4088   -2.1563   60.0471 N.am    1  ZINC000467185792   -0.4300
     25 C25       -11.6574   -2.0492   58.9345 C.2     1  ZINC000467185792    0.5000
     26 O26       -10.4590   -1.8412   59.0154 O.2     1  ZINC000467185792   -0.5300
     27 N27       -10.0828    0.1587   54.1846 N.2     1  ZINC000467185792   -0.5000
     28 C28        -8.7791    2.4882   52.8906 C.ar    1  ZINC000467185792   -0.0600
     29 C29        -7.9182    3.4739   52.4553 C.ar    1  ZINC000467185792   -0.1500
     30 H30        -2.0977    3.3362   50.3482 H       1  ZINC000467185792    0.0600
     31 H31        -1.9282    2.0723   51.5898 H       1  ZINC000467185792    0.0700
     32 H32        -2.9130    1.7680   50.1387 H       1  ZINC000467185792    0.0600
     33 H33        -4.3476    2.2515   52.1027 H       1  ZINC000467185792    0.0700
     34 H34        -3.5321    3.8198   52.3121 H       1  ZINC000467185792    0.0700
     35 H35        -4.3082    4.5575   50.1046 H       1  ZINC000467185792    0.0600
     36 H36        -5.0398    2.9635   49.8010 H       1  ZINC000467185792    0.0600
     37 H37        -5.7460    1.5687   50.6940 H       1  ZINC000467185792    0.1300
     38 H38        -7.2694   -0.1981   51.4724 H       1  ZINC000467185792    0.1300
     39 H39        -9.3249   -1.2280   51.3066 H       1  ZINC000467185792    0.1800
     40 H40       -12.1680   -0.2047   55.9545 H       1  ZINC000467185792    0.4400
     41 H41       -15.4242   -2.1948   56.4659 H       1  ZINC000467185792    0.0900
     42 H42       -13.9025   -1.9717   55.5696 H       1  ZINC000467185792    0.1300
     43 H43       -13.4059   -4.3891   55.8110 H       1  ZINC000467185792    0.0600
     44 H44       -14.9276   -4.6122   56.7073 H       1  ZINC000467185792    0.0600
     45 H45       -14.9662   -4.1360   54.9926 H       1  ZINC000467185792    0.0700
     46 H46       -16.3370   -1.8737   58.5440 H       1  ZINC000467185792    0.1000
     47 H47       -16.0434   -3.6043   58.2484 H       1  ZINC000467185792    0.1000
     48 H48       -17.3220   -3.2640   60.3455 H       1  ZINC000467185792    0.0600
     49 H49       -15.7205   -3.9649   60.6803 H       1  ZINC000467185792    0.0600
     50 H50       -16.0141   -2.2344   60.9759 H       1  ZINC000467185792    0.0600
     51 H51       -11.9815   -2.0700   60.9137 H       1  ZINC000467185792    0.4500
     52 H52        -9.6289    2.7453   53.5054 H       1  ZINC000467185792    0.1300
     53 H53        -8.0962    4.5039   52.7269 H       1  ZINC000467185792    0.1400
@<TRIPOS>BOND
     1     1     2    1
     2     1    30    1
     3     1    31    1
     4     1    32    1
     5     2     3    1
     6     2    33    1
     7     2    34    1
     8     3     4    1
     9     3    35    1
    10     3    36    1
    11     4     5    1
    12     5    29   ar
    13     5     6   ar
    14     6     7   ar
    15     6    37    1
    16     7     8   ar
    17     7    38    1
    18     8     9    1
    19     8    28   ar
    20     9    27    1
    21     9    10    2
    22    10    11    1
    23    10    39    1
    24    11    12    1
    25    12    13    1
    26    12    27    2
    27    13    14   am
    28    13    40    1
    29    14    15    2
    30    14    16    1
    31    16    25    1
    32    16    17    2
    33    17    18    1
    34    17    20    1
    35    18    19    1
    36    18    41    1
    37    18    42    1
    38    19    43    1
    39    19    44    1
    40    19    45    1
    41    20    21    1
    42    20    23    2
    43    21    22    1
    44    21    46    1
    45    21    47    1
    46    22    48    1
    47    22    49    1
    48    22    50    1
    49    23    24    1
    50    24    25   am
    51    24    51    1
    52    25    26    2
    53    28    29   ar
    54    28    52    1
    55    29    53    1
@<TRIPOS>SUBSTRUCTURE
     1 ZINC000467185792        1 TEMP              0 ****  ****    0 ROOT


##########                                Name:    ZINC000637608314
##########                DOCK_Rotatable_Bonds:                   9
##########                         Heavy_Atoms:                  28
##########                    Molecular_Weight:             387.479
##########                DOCK_Rotatable_Bonds:                   9
##########                       Formal_Charge:           0.0499991
##########                     HBond_Acceptors:                   7
##########                        HBond_Donors:                   2
##########                         Heavy_Atoms:                  28
##########                          Grid_Score:          -33.883278
##########                     Grid_vdw_energy:          -32.729561
##########                      Grid_es_energy:           -1.153719
##########           Internal_energy_repulsive:           16.912661

@<TRIPOS>MOLECULE
ZINC000637608314
 57 59 1 0 0
SMALL
USER_CHARGES


@<TRIPOS>ATOM
      1 C1         -9.1378   -1.4939   60.3621 C.3     1  ZINC000637608314   -0.1400
      2 C2        -10.3527   -0.6341   60.0071 C.3     1  ZINC000637608314   -0.0400
      3 C3        -11.3098   -0.5866   61.1998 C.3     1  ZINC000637608314   -0.1500
      4 C4         -9.8914    0.7843   59.6664 C.3     1  ZINC000637608314   -0.1500
      5 C5        -11.0606   -1.2313   58.8184 C.2     1  ZINC000637608314    0.1900
      6 C6        -12.1529   -0.6144   58.3102 C.2     1  ZINC000637608314   -0.2400
      7 C7        -12.8163   -1.1644   57.2043 C.2     1  ZINC000637608314    0.0200
      8 C8        -12.3479   -2.3208   56.6532 C.2     1  ZINC000637608314   -0.2400
      9 C9        -13.0419   -2.9330   55.4638 C.3     1  ZINC000637608314    0.2100
     10 N10       -12.4004   -2.4682   54.2315 N.am    1  ZINC000637608314   -0.7300
     11 C11       -12.9353   -1.4435   53.5384 C.2     1  ZINC000637608314    0.7100
     12 O12       -13.9511   -0.9059   53.9352 O.2     1  ZINC000637608314   -0.5900
     13 N13       -12.3443   -1.0148   52.4056 N.am    1  ZINC000637608314   -0.6200
     14 C14       -11.1214   -1.6637   51.9266 C.3     1  ZINC000637608314    0.2000
     15 C15        -9.9253   -0.8385   52.3258 C.2     1  ZINC000637608314   -0.0400
     16 C16        -9.8646    0.0032   53.3733 C.2     1  ZINC000637608314   -0.1900
     17 C17        -8.5661    0.5626   53.3745 C.2     1  ZINC000637608314   -0.2200
     18 C18        -7.9109    0.0292   52.3277 C.2     1  ZINC000637608314   -0.0300
     19 O19        -8.7373   -0.8230   51.6996 O.3     1  ZINC000637608314   -0.1700
     20 C20       -12.9248    0.1002   51.6533 C.3     1  ZINC000637608314    0.1300
     21 C21       -13.8976   -0.4434   50.6049 C.3     1  ZINC000637608314    0.0700
     22 H22       -13.4050   -1.2088   50.0053 H       1  ZINC000637608314    0.0900
     23 C23       -14.3813    0.7051   49.6938 C.3     1  ZINC000637608314   -0.1500
     24 C24       -15.8799    0.3532   49.4874 C.3     1  ZINC000637608314   -0.1600
     25 C25       -16.2269   -0.2729   50.8615 C.3     1  ZINC000637608314    0.0500
     26 O26       -15.0485   -0.9991   51.2519 O.3     1  ZINC000637608314   -0.3800
     27 C27       -11.2111   -2.9351   57.2059 C.2     1  ZINC000637608314    0.5300
     28 O28       -10.7811   -3.9701   56.7222 O.2     1  ZINC000637608314   -0.5400
     29 N29       -10.5926   -2.3793   58.2650 N.am    1  ZINC000637608314   -0.6000
     30 H30        -9.4663   -2.5044   60.6049 H       1  ZINC000637608314    0.0700
     31 H31        -8.4559   -1.5277   59.5124 H       1  ZINC000637608314    0.0700
     32 H32        -8.6257   -1.0619   61.2219 H       1  ZINC000637608314    0.0700
     33 H33       -10.7977   -0.1546   62.0596 H       1  ZINC000637608314    0.0700
     34 H34       -12.1752    0.0260   60.9470 H       1  ZINC000637608314    0.0600
     35 H35       -11.6383   -1.5972   61.4426 H       1  ZINC000637608314    0.0700
     36 H36        -9.2096    0.7505   58.8167 H       1  ZINC000637608314    0.0700
     37 H37       -10.7569    1.3968   59.4135 H       1  ZINC000637608314    0.0600
     38 H38        -9.3794    1.2163   60.5262 H       1  ZINC000637608314    0.0700
     39 H39       -12.5134    0.3006   58.7565 H       1  ZINC000637608314    0.1500
     40 H40       -13.6887   -0.6780   56.7937 H       1  ZINC000637608314    0.1400
     41 H41       -12.9724   -4.0193   55.5221 H       1  ZINC000637608314    0.0800
     42 H42       -14.0905   -2.6355   55.4621 H       1  ZINC000637608314    0.0800
     43 H43       -11.5906   -2.8979   53.9143 H       1  ZINC000637608314    0.4000
     44 H44       -11.0407   -2.6574   52.3673 H       1  ZINC000637608314    0.1200
     45 H45       -11.1572   -1.7499   50.8406 H       1  ZINC000637608314    0.0900
     46 H46       -10.6560    0.2121   54.0778 H       1  ZINC000637608314    0.1500
     47 H47        -8.1753    1.2806   54.0803 H       1  ZINC000637608314    0.1500
     48 H48        -6.8921    0.2465   52.0431 H       1  ZINC000637608314    0.2000
     49 H49       -13.4588    0.7606   52.3366 H       1  ZINC000637608314    0.0800
     50 H50       -12.1297    0.6568   51.1571 H       1  ZINC000637608314    0.1000
     51 H51       -14.2742    1.6680   50.1934 H       1  ZINC000637608314    0.0800
     52 H52       -13.8468    0.6981   48.7439 H       1  ZINC000637608314    0.0900
     53 H53       -16.4721    1.2497   49.3033 H       1  ZINC000637608314    0.0800
     54 H54       -16.0060   -0.3709   48.6825 H       1  ZINC000637608314    0.0800
     55 H55       -16.4487    0.5086   51.5882 H       1  ZINC000637608314    0.0600
     56 H56       -17.0741   -0.9521   50.7647 H       1  ZINC000637608314    0.0800
     57 H57        -9.8082   -2.8081   58.6415 H       1  ZINC000637608314    0.4100
@<TRIPOS>BOND
     1     1     2    1
     2     1    30    1
     3     1    31    1
     4     1    32    1
     5     2     3    1
     6     2     4    1
     7     2     5    1
     8     3    33    1
     9     3    34    1
    10     3    35    1
    11     4    36    1
    12     4    37    1
    13     4    38    1
    14     5    29    1
    15     5     6    2
    16     6     7    1
    17     6    39    1
    18     7     8    2
    19     7    40    1
    20     8     9    1
    21     8    27    1
    22     9    10    1
    23     9    41    1
    24     9    42    1
    25    10    11   am
    26    10    43    1
    27    11    12    2
    28    11    13   am
    29    13    14    1
    30    13    20    1
    31    14    15    1
    32    14    44    1
    33    14    45    1
    34    15    19    1
    35    15    16    2
    36    16    17    1
    37    16    46    1
    38    17    18    2
    39    17    47    1
    40    18    19    1
    41    18    48    1
    42    20    21    1
    43    20    49    1
    44    20    50    1
    45    21    22    1
    46    21    26    1
    47    21    23    1
    48    23    24    1
    49    23    51    1
    50    23    52    1
    51    24    25    1
    52    24    53    1
    53    24    54    1
    54    25    26    1
    55    25    55    1
    56    25    56    1
    57    27    28    2
    58    27    29   am
    59    29    57    1
@<TRIPOS>SUBSTRUCTURE
     1 ZINC000637608314        1 TEMP              0 ****  ****    0 ROOT


##########                                Name:    ZINC001105194920
##########                DOCK_Rotatable_Bonds:                   8
##########                         Heavy_Atoms:                  25
##########                    Molecular_Weight:             346.392
##########                DOCK_Rotatable_Bonds:                   8
##########                       Formal_Charge:          -0.0100007
##########                     HBond_Acceptors:                  10
##########                        HBond_Donors:                   3
##########                         Heavy_Atoms:                  25
##########                          Grid_Score:          -33.860802
##########                     Grid_vdw_energy:          -33.734268
##########                      Grid_es_energy:           -0.126535
##########           Internal_energy_repulsive:           11.167421

@<TRIPOS>MOLECULE
ZINC001105194920
 47 49 1 0 0
SMALL
USER_CHARGES


@<TRIPOS>ATOM
      1 C1         -3.3987    2.0804   49.9780 C.3     1  ZINC001105194920    0.0300
      2 O2         -4.5913    2.2957   49.2207 O.3     1  ZINC001105194920   -0.3900
      3 C3         -5.4962    3.2289   49.8143 C.3     1  ZINC001105194920    0.0700
      4 C4         -5.9958    2.6755   51.1504 C.3     1  ZINC001105194920    0.0900
      5 H5         -5.1450    2.4771   51.8023 H       1  ZINC001105194920    0.0900
      6 C6         -6.9186    3.7000   51.8137 C.3     1  ZINC001105194920   -0.1800
      7 N7         -6.7359    1.4280   50.9178 N.3     1  ZINC001105194920   -0.6800
      8 C8         -6.9530    0.7022   52.1764 C.3     1  ZINC001105194920    0.1400
      9 C9         -8.4267    0.4469   52.3612 C.2     1  ZINC001105194920   -0.0200
     10 C10        -9.0961   -0.6894   52.0568 C.2     1  ZINC001105194920   -0.0200
     11 N11       -10.3886   -0.4660   52.3892 N.pl3   1  ZINC001105194920   -0.2800
     12 C12       -11.4909   -1.4190   52.2379 C.3     1  ZINC001105194920    0.1000
     13 C13       -11.5192   -2.5114   53.3222 C.3     1  ZINC001105194920    0.1100
     14 N14       -12.3876   -1.5925   54.0834 N.am    1  ZINC001105194920   -0.6300
     15 C15       -12.6712   -1.4262   55.3905 C.2     1  ZINC001105194920    0.6200
     16 O16       -13.4489   -0.5588   55.7381 O.2     1  ZINC001105194920   -0.5400
     17 C17       -12.0370   -2.2979   56.4006 C.ar    1  ZINC001105194920   -0.0600
     18 N18       -12.3183   -3.5972   56.4333 N.ar    1  ZINC001105194920   -0.3700
     19 C19       -11.7510   -4.3718   57.3356 C.ar    1  ZINC001105194920   -0.0200
     20 C20       -10.8588   -3.8394   58.2554 C.ar    1  ZINC001105194920    0.1500
     21 N21       -10.5701   -2.5509   58.2355 N.ar    1  ZINC001105194920   -0.5100
     22 C22       -11.1296   -1.7594   57.3277 C.ar    1  ZINC001105194920    0.4200
     23 N23       -10.8296   -0.4098   57.3031 N.pl3   1  ZINC001105194920   -0.8100
     24 C24       -12.8209   -0.9288   52.8385 C.3     1  ZINC001105194920    0.1100
     25 N25       -10.4831    0.7276   52.8616 N.2     1  ZINC001105194920   -0.0800
     26 N26        -9.3294    1.2966   52.8637 N.2     1  ZINC001105194920   -0.2600
     27 H27        -3.6588    1.6939   50.9634 H       1  ZINC001105194920    0.0400
     28 H28        -2.7650    1.3600   49.4607 H       1  ZINC001105194920    0.0800
     29 H29        -2.8626    3.0232   50.0872 H       1  ZINC001105194920    0.0400
     30 H30        -4.9831    4.1758   49.9823 H       1  ZINC001105194920    0.0600
     31 H31        -6.3434    3.3880   49.1473 H       1  ZINC001105194920    0.0500
     32 H32        -7.7692    3.8984   51.1616 H       1  ZINC001105194920    0.0700
     33 H33        -7.2745    3.3058   52.7655 H       1  ZINC001105194920    0.0500
     34 H34        -6.3694    4.6255   51.9863 H       1  ZINC001105194920    0.0600
     35 H35        -7.6110    1.6089   50.4490 H       1  ZINC001105194920    0.3500
     36 H36        -6.4207   -0.2484   52.1440 H       1  ZINC001105194920    0.0900
     37 H37        -6.5805    1.2991   53.0088 H       1  ZINC001105194920    0.0500
     38 H38        -8.6821   -1.5925   51.6333 H       1  ZINC001105194920    0.1800
     39 H39       -11.5835   -1.8039   51.2223 H       1  ZINC001105194920    0.1500
     40 H40       -12.0177   -3.4286   53.0088 H       1  ZINC001105194920    0.1200
     41 H41       -10.5514   -2.6905   53.7907 H       1  ZINC001105194920    0.1000
     42 H42       -11.9818   -5.4265   57.3596 H       1  ZINC001105194920    0.1800
     43 H43       -10.3985   -4.4819   58.9914 H       1  ZINC001105194920    0.1800
     44 H44       -10.1521   -0.0526   57.8982 H       1  ZINC001105194920    0.4000
     45 H45       -11.2968    0.1798   56.6906 H       1  ZINC001105194920    0.4300
     46 H46       -12.8924    0.1558   52.9208 H       1  ZINC001105194920    0.1100
     47 H47       -13.7019   -1.3811   52.3831 H       1  ZINC001105194920    0.1200
@<TRIPOS>BOND
     1     1     2    1
     2     1    27    1
     3     1    28    1
     4     1    29    1
     5     2     3    1
     6     3     4    1
     7     3    30    1
     8     3    31    1
     9     4     5    1
    10     4     6    1
    11     4     7    1
    12     6    32    1
    13     6    33    1
    14     6    34    1
    15     7     8    1
    16     7    35    1
    17     8     9    1
    18     8    36    1
    19     8    37    1
    20     9    26    1
    21     9    10    2
    22    10    11    1
    23    10    38    1
    24    11    12    1
    25    11    25    1
    26    12    24    1
    27    12    13    1
    28    12    39    1
    29    13    14    1
    30    13    40    1
    31    13    41    1
    32    14    15   am
    33    14    24    1
    34    15    16    2
    35    15    17    1
    36    17    22   ar
    37    17    18   ar
    38    18    19   ar
    39    19    20   ar
    40    19    42    1
    41    20    21   ar
    42    20    43    1
    43    21    22   ar
    44    22    23    1
    45    23    44    1
    46    23    45    1
    47    24    46    1
    48    24    47    1
    49    25    26    2
@<TRIPOS>SUBSTRUCTURE
     1 ZINC001105194920        1 TEMP              0 ****  ****    0 ROOT


##########                                Name:    ZINC000654382142
##########                DOCK_Rotatable_Bonds:                  14
##########                         Heavy_Atoms:                  24
##########                    Molecular_Weight:             379.401
##########                DOCK_Rotatable_Bonds:                  14
##########                       Formal_Charge:          0.00999933
##########                     HBond_Acceptors:                  12
##########                        HBond_Donors:                   2
##########                         Heavy_Atoms:                  24
##########                          Grid_Score:          -33.819317
##########                     Grid_vdw_energy:          -32.748119
##########                      Grid_es_energy:           -1.071196
##########           Internal_energy_repulsive:           17.334528

@<TRIPOS>MOLECULE
ZINC000654382142
 48 47 1 0 0
SMALL
USER_CHARGES


@<TRIPOS>ATOM
      1 C1         -3.0353    3.0600   55.9760 C.3     1  ZINC000654382142    0.0300
      2 O2         -3.9342    3.9462   55.3060 O.3     1  ZINC000654382142   -0.3700
      3 C3         -3.7008    4.0577   53.9007 C.3     1  ZINC000654382142    0.0400
      4 C4         -4.2871    2.8374   53.1879 C.3     1  ZINC000654382142    0.1400
      5 N5         -4.3374    3.0915   51.7460 N.am    1  ZINC000654382142   -0.6100
      6 C6         -5.5963    3.4998   51.1178 C.3     1  ZINC000654382142    0.0800
      7 C7         -6.2064    2.3084   50.3767 C.3     1  ZINC000654382142    0.0500
      8 H8         -5.4663    1.8850   49.6977 H       1  ZINC000654382142    0.1400
      9 O9         -7.3442    2.7440   49.6297 O.3     1  ZINC000654382142   -0.5200
     10 C10        -6.6376    1.2448   51.3887 C.3     1  ZINC000654382142    0.4200
     11 F11        -7.2690    1.8622   52.4737 F       1  ZINC000654382142   -0.1800
     12 F12        -7.5258    0.3530   50.7780 F       1  ZINC000654382142   -0.1700
     13 F13        -5.5121    0.5468   51.8395 F       1  ZINC000654382142   -0.1800
     14 C14        -3.2258    2.9494   50.9975 C.2     1  ZINC000654382142    0.7100
     15 O15        -3.2673    3.1617   49.8010 O.2     1  ZINC000654382142   -0.5600
     16 N16        -2.0681    2.5721   51.5752 N.am    1  ZINC000654382142   -0.7500
     17 C17        -0.8600    2.4160   50.7612 C.3     1  ZINC000654382142    0.1400
     18 C18         0.3333    2.1184   51.6714 C.3     1  ZINC000654382142   -0.1600
     19 C19         1.6337    2.3417   50.8968 C.3     1  ZINC000654382142    0.1200
     20 N20         2.7557    1.7820   51.6544 N.am    1  ZINC000654382142   -1.0000
     21 C21         3.1710    2.4030   52.9146 C.3     1  ZINC000654382142    0.0900
     22 S22         3.5545    0.4472   51.0864 S.o2    1  ZINC000654382142    2.6100
     23 C23         4.2031    0.9609   49.4721 C.3     1  ZINC000654382142   -0.6800
     24 O24         4.6156    0.2538   52.0115 O.2     1  ZINC000654382142   -0.9500
     25 O25         2.5350   -0.5296   50.9262 O.2     1  ZINC000654382142   -0.9500
     26 H26        -3.2784    3.0306   57.0382 H       1  ZINC000654382142    0.0900
     27 H27        -3.1296    2.0594   55.5539 H       1  ZINC000654382142    0.0400
     28 H28        -2.0125    3.4140   55.8469 H       1  ZINC000654382142    0.0400
     29 H29        -4.1776    4.9625   53.5238 H       1  ZINC000654382142    0.0500
     30 H30        -2.6282    4.1074   53.7134 H       1  ZINC000654382142    0.0600
     31 H31        -3.6598    1.9673   53.3819 H       1  ZINC000654382142    0.0900
     32 H32        -5.2944    2.6491   53.5592 H       1  ZINC000654382142    0.1000
     33 H33        -6.2899    3.8447   51.8846 H       1  ZINC000654382142    0.1000
     34 H34        -5.4045    4.3076   50.4114 H       1  ZINC000654382142    0.1000
     35 H35        -7.1339    3.3657   48.9196 H       1  ZINC000654382142    0.3900
     36 H36        -2.0346    2.4040   52.5299 H       1  ZINC000654382142    0.3900
     37 H37        -0.9975    1.5918   50.0612 H       1  ZINC000654382142    0.0700
     38 H38        -0.6738    3.3360   50.2071 H       1  ZINC000654382142    0.0700
     39 H39         0.3061    2.7828   52.5350 H       1  ZINC000654382142    0.0700
     40 H40         0.2842    1.0829   52.0079 H       1  ZINC000654382142    0.0800
     41 H41         1.5682    1.8486   49.9269 H       1  ZINC000654382142    0.0900
     42 H42         1.7908    3.4105   50.7511 H       1  ZINC000654382142    0.1000
     43 H43         2.6238    1.9493   53.7409 H       1  ZINC000654382142    0.0600
     44 H44         4.2405    2.2506   53.0596 H       1  ZINC000654382142    0.0700
     45 H45         2.9576    3.4714   52.8807 H       1  ZINC000654382142    0.0700
     46 H46         4.8729    1.8108   49.6034 H       1  ZINC000654382142    0.1300
     47 H47         4.7503    0.1334   49.0203 H       1  ZINC000654382142    0.1300
     48 H48         3.3759    1.2472   48.8225 H       1  ZINC000654382142    0.1300
@<TRIPOS>BOND
     1     1     2    1
     2     1    26    1
     3     1    27    1
     4     1    28    1
     5     2     3    1
     6     3     4    1
     7     3    29    1
     8     3    30    1
     9     4     5    1
    10     4    31    1
    11     4    32    1
    12     5     6    1
    13     5    14   am
    14     6     7    1
    15     6    33    1
    16     6    34    1
    17     7     8    1
    18     7     9    1
    19     7    10    1
    20     9    35    1
    21    10    11    1
    22    10    12    1
    23    10    13    1
    24    14    15    2
    25    14    16   am
    26    16    17    1
    27    16    36    1
    28    17    18    1
    29    17    37    1
    30    17    38    1
    31    18    19    1
    32    18    39    1
    33    18    40    1
    34    19    20    1
    35    19    41    1
    36    19    42    1
    37    20    21    1
    38    20    22   am
    39    21    43    1
    40    21    44    1
    41    21    45    1
    42    22    23    1
    43    22    24    2
    44    22    25    2
    45    23    46    1
    46    23    47    1
    47    23    48    1
@<TRIPOS>SUBSTRUCTURE
     1 ZINC000654382142        1 TEMP              0 ****  ****    0 ROOT


##########                                Name:    ZINC000465392830
##########                DOCK_Rotatable_Bonds:                   8
##########                         Heavy_Atoms:                  29
##########                    Molecular_Weight:             419.588
##########                DOCK_Rotatable_Bonds:                   8
##########                       Formal_Charge:           0.0199996
##########                     HBond_Acceptors:                   7
##########                        HBond_Donors:                   0
##########                         Heavy_Atoms:                  29
##########                          Grid_Score:          -33.814861
##########                     Grid_vdw_energy:          -32.571121
##########                      Grid_es_energy:           -1.243739
##########           Internal_energy_repulsive:           27.370558

@<TRIPOS>MOLECULE
ZINC000465392830
 62 64 1 0 0
SMALL
USER_CHARGES


@<TRIPOS>ATOM
      1 C1         -8.5730    5.5516   51.8124 C.3     1  ZINC000465392830    0.0400
      2 O2         -7.9019    5.2856   50.5525 O.3     1  ZINC000465392830   -0.3600
      3 C3         -8.1600    4.1086   49.9612 C.2     1  ZINC000465392830    0.4600
      4 O4         -9.1586    3.9736   49.2944 O.2     1  ZINC000465392830   -0.4900
      5 C5         -7.2044    2.9554   50.1289 C.3     1  ZINC000465392830    0.1500
      6 H6         -7.4909    2.1375   49.4679 H       1  ZINC000465392830    0.1100
      7 C7         -5.7669    3.4136   49.8044 C.3     1  ZINC000465392830   -0.1100
      8 C8         -4.9156    2.6619   50.8617 C.3     1  ZINC000465392830   -0.0900
      9 H9         -4.7064    1.6413   50.5409 H       1  ZINC000465392830    0.1000
     10 C10        -3.6185    3.4169   51.1589 C.3     1  ZINC000465392830   -0.0800
     11 C11        -3.0004    2.8798   52.4513 C.3     1  ZINC000465392830   -0.1200
     12 C12        -1.7034    3.6348   52.7485 C.3     1  ZINC000465392830   -0.1200
     13 C13        -0.7211    3.4359   51.5924 C.3     1  ZINC000465392830   -0.1200
     14 C14        -1.3391    3.9730   50.3000 C.3     1  ZINC000465392830   -0.1200
     15 C15        -2.6363    3.2180   50.0028 C.3     1  ZINC000465392830   -0.1200
     16 C16        -5.8607    2.6755   52.0889 C.3     1  ZINC000465392830    0.1000
     17 N17        -7.2149    2.4966   51.5258 N.am    1  ZINC000465392830   -0.6100
     18 C18        -8.2803    1.9993   52.1847 C.2     1  ZINC000465392830    0.5400
     19 O19        -9.3496    1.9001   51.6212 O.2     1  ZINC000465392830   -0.5300
     20 C20        -8.1427    1.5666   53.6216 C.3     1  ZINC000465392830   -0.1300
     21 C21        -9.2220    2.2482   54.4651 C.3     1  ZINC000465392830   -0.0600
     22 C22        -9.2837    1.5977   55.8231 C.ar    1  ZINC000465392830   -0.2000
     23 C23        -8.4838    2.0492   56.8614 C.ar    1  ZINC000465392830    0.2000
     24 C24        -7.5369    3.2021   56.6487 C.3     1  ZINC000465392830   -0.1100
     25 N25        -8.5621    1.4563   58.0410 N.ar    1  ZINC000465392830   -0.5000
     26 C26        -9.3929    0.4419   58.2356 C.ar    1  ZINC000465392830    0.3000
     27 S27        -9.4650   -0.3187   59.8234 S.3     1  ZINC000465392830    0.0000
     28 C28        -9.7143    1.1431   60.8612 C.3     1  ZINC000465392830   -0.1400
     29 N29       -10.1713   -0.0134   57.2640 N.ar    1  ZINC000465392830   -0.5300
     30 C30       -10.1455    0.5386   56.0624 C.ar    1  ZINC000465392830    0.2000
     31 C31       -11.0336    0.0149   54.9633 C.3     1  ZINC000465392830   -0.1100
     32 H32        -9.6522    5.5305   51.6607 H       1  ZINC000465392830    0.0600
     33 H33        -8.2935    4.7903   52.5408 H       1  ZINC000465392830    0.0600
     34 H34        -8.2772    6.5336   52.1814 H       1  ZINC000465392830    0.1000
     35 H35        -5.4843    3.1114   48.7960 H       1  ZINC000465392830    0.1000
     36 H36        -5.6691    4.4923   49.9267 H       1  ZINC000465392830    0.0800
     37 H37        -3.8345    4.4791   51.2734 H       1  ZINC000465392830    0.0800
     38 H38        -3.7002    3.0215   53.2749 H       1  ZINC000465392830    0.0600
     39 H39        -2.7844    1.8176   52.3367 H       1  ZINC000465392830    0.0700
     40 H40        -1.9193    4.6971   52.8632 H       1  ZINC000465392830    0.0600
     41 H41        -1.2630    3.2522   53.6693 H       1  ZINC000465392830    0.0600
     42 H42         0.2030    3.9739   51.8042 H       1  ZINC000465392830    0.0600
     43 H43        -0.5051    2.3737   51.4779 H       1  ZINC000465392830    0.0600
     44 H44        -1.5551    5.0353   50.4146 H       1  ZINC000465392830    0.0600
     45 H45        -0.6394    3.8313   49.4763 H       1  ZINC000465392830    0.0600
     46 H46        -2.4202    2.1558   49.8882 H       1  ZINC000465392830    0.0700
     47 H47        -3.0765    3.6007   49.0820 H       1  ZINC000465392830    0.0600
     48 H48        -5.6198    1.8532   52.7624 H       1  ZINC000465392830    0.0900
     49 H49        -5.7892    3.6291   52.6122 H       1  ZINC000465392830    0.0800
     50 H50        -8.2589    0.4848   53.6880 H       1  ZINC000465392830    0.1000
     51 H51        -7.1581    1.8497   53.9937 H       1  ZINC000465392830    0.1000
     52 H52        -8.9807    3.3050   54.5791 H       1  ZINC000465392830    0.0900
     53 H53       -10.1878    2.1474   53.9698 H       1  ZINC000465392830    0.0900
     54 H54        -8.0461    4.1378   56.8795 H       1  ZINC000465392830    0.0900
     55 H55        -6.6726    3.0879   57.3030 H       1  ZINC000465392830    0.0900
     56 H56        -7.2071    3.2145   55.6099 H       1  ZINC000465392830    0.0900
     57 H57        -8.8741    1.8259   60.7349 H       1  ZINC000465392830    0.0900
     58 H58       -10.6368    1.6440   60.5677 H       1  ZINC000465392830    0.0900
     59 H59        -9.7821    0.8396   61.9059 H       1  ZINC000465392830    0.1100
     60 H60       -11.9865    0.5436   54.9833 H       1  ZINC000465392830    0.0900
     61 H61       -10.5504    0.1732   53.9993 H       1  ZINC000465392830    0.0900
     62 H62       -11.2062   -1.0510   55.1125 H       1  ZINC000465392830    0.0800
@<TRIPOS>BOND
     1     1     2    1
     2     1    32    1
     3     1    33    1
     4     1    34    1
     5     2     3    1
     6     3     4    2
     7     3     5    1
     8     5     6    1
     9     5    17    1
    10     5     7    1
    11     7     8    1
    12     7    35    1
    13     7    36    1
    14     8     9    1
    15     8    10    1
    16     8    16    1
    17    10    15    1
    18    10    11    1
    19    10    37    1
    20    11    12    1
    21    11    38    1
    22    11    39    1
    23    12    13    1
    24    12    40    1
    25    12    41    1
    26    13    14    1
    27    13    42    1
    28    13    43    1
    29    14    15    1
    30    14    44    1
    31    14    45    1
    32    15    46    1
    33    15    47    1
    34    16    17    1
    35    16    48    1
    36    16    49    1
    37    17    18   am
    38    18    19    2
    39    18    20    1
    40    20    21    1
    41    20    50    1
    42    20    51    1
    43    21    22    1
    44    21    52    1
    45    21    53    1
    46    22    30   ar
    47    22    23   ar
    48    23    24    1
    49    23    25   ar
    50    24    54    1
    51    24    55    1
    52    24    56    1
    53    25    26   ar
    54    26    27    1
    55    26    29   ar
    56    27    28    1
    57    28    57    1
    58    28    58    1
    59    28    59    1
    60    29    30   ar
    61    30    31    1
    62    31    60    1
    63    31    61    1
    64    31    62    1
@<TRIPOS>SUBSTRUCTURE
     1 ZINC000465392830        1 TEMP              0 ****  ****    0 ROOT


##########                                Name:    ZINC001492779707
##########                DOCK_Rotatable_Bonds:                   8
##########                         Heavy_Atoms:                  27
##########                    Molecular_Weight:             374.483
##########                DOCK_Rotatable_Bonds:                   8
##########                       Formal_Charge:           0.0199998
##########                     HBond_Acceptors:                   7
##########                        HBond_Donors:                   0
##########                         Heavy_Atoms:                  27
##########                          Grid_Score:          -33.811497
##########                     Grid_vdw_energy:          -33.867645
##########                      Grid_es_energy:            0.056147
##########           Internal_energy_repulsive:           11.361882

@<TRIPOS>MOLECULE
ZINC001492779707
 57 59 1 0 0
SMALL
USER_CHARGES


@<TRIPOS>ATOM
      1 C1         -1.6726    3.8194   50.3984 C.3     1  ZINC001492779707   -0.0700
      2 C2         -3.0875    3.3283   50.2317 C.2     1  ZINC001492779707    0.1800
      3 N3         -3.5641    2.6798   49.2069 N.2     1  ZINC001492779707   -0.2900
      4 N4         -4.8078    2.4141   49.3931 N.2     1  ZINC001492779707   -0.3100
      5 C5         -5.1944    2.8826   50.5563 C.2     1  ZINC001492779707    0.3400
      6 N6         -6.4651    2.7881   51.1013 N.3     1  ZINC001492779707   -0.4600
      7 C7         -7.4816    3.2612   50.1522 C.3     1  ZINC001492779707    0.0300
      8 C8         -6.7502    1.4144   51.5367 C.3     1  ZINC001492779707    0.1100
      9 C9         -7.8193    1.4358   52.5987 C.ar    1  ZINC001492779707   -0.0400
     10 C10        -7.9372    2.5279   53.4381 C.ar    1  ZINC001492779707   -0.1300
     11 C11        -8.9172    2.5506   54.4136 C.ar    1  ZINC001492779707   -0.0800
     12 C12        -9.7808    1.4816   54.5514 C.ar    1  ZINC001492779707   -0.2100
     13 C13        -9.6645    0.3843   53.7102 C.ar    1  ZINC001492779707    0.1300
     14 O14       -10.5134   -0.6687   53.8437 O.3     1  ZINC001492779707   -0.3100
     15 C15       -11.6860   -0.6640   53.0269 C.3     1  ZINC001492779707    0.0800
     16 C16       -11.4563   -1.5487   51.7999 C.3     1  ZINC001492779707   -0.1500
     17 C17       -12.8699   -1.2048   53.8312 C.3     1  ZINC001492779707   -0.1800
     18 C18        -8.6844    0.3664   52.7290 C.ar    1  ZINC001492779707   -0.1400
     19 N19        -4.1077    3.4754   51.1302 N.pl3   1  ZINC001492779707   -0.4600
     20 C20        -4.0485    4.1402   52.4344 C.3     1  ZINC001492779707    0.1200
     21 C21        -4.0193    3.0864   53.5432 C.3     1  ZINC001492779707   -0.1200
     22 C22        -3.6359    3.7499   54.8674 C.3     1  ZINC001492779707    0.0600
     23 H23        -2.6514    4.2081   54.7738 H       1  ZINC001492779707    0.0800
     24 C24        -4.6690    4.8241   55.2195 C.3     1  ZINC001492779707    0.0300
     25 O25        -4.3662    5.3614   56.5106 O.3     1  ZINC001492779707   -0.3800
     26 C26        -4.3401    4.3772   57.5486 C.3     1  ZINC001492779707    0.0200
     27 C27        -3.3070    3.3030   57.1966 C.3     1  ZINC001492779707    0.0300
     28 O28        -3.6084    2.7654   55.9053 O.3     1  ZINC001492779707   -0.3800
     29 H29        -1.0734    3.0453   50.8778 H       1  ZINC001492779707    0.0900
     30 H30        -1.2510    4.0518   49.4205 H       1  ZINC001492779707    0.1000
     31 H31        -1.6700    4.7165   51.0176 H       1  ZINC001492779707    0.0800
     32 H32        -7.5189    2.5892   49.2948 H       1  ZINC001492779707    0.0500
     33 H33        -8.4553    3.2799   50.6419 H       1  ZINC001492779707    0.0900
     34 H34        -7.2249    4.2657   49.8156 H       1  ZINC001492779707    0.0700
     35 H35        -7.0954    0.8277   50.6855 H       1  ZINC001492779707    0.0700
     36 H36        -5.8434    0.9664   51.9430 H       1  ZINC001492779707    0.0900
     37 H37        -7.2627    3.3647   53.3320 H       1  ZINC001492779707    0.1200
     38 H38        -9.0070    3.4048   55.0683 H       1  ZINC001492779707    0.1300
     39 H39       -10.5458    1.4996   55.3137 H       1  ZINC001492779707    0.1300
     40 H40       -11.9006    0.3549   52.7050 H       1  ZINC001492779707    0.0700
     41 H41       -11.2418   -2.5678   52.1218 H       1  ZINC001492779707    0.0700
     42 H42       -12.3508   -1.5453   51.1769 H       1  ZINC001492779707    0.0800
     43 H43       -10.6129   -1.1635   51.2270 H       1  ZINC001492779707    0.0700
     44 H44       -13.0335   -0.5745   54.7053 H       1  ZINC001492779707    0.0600
     45 H45       -13.7643   -1.2012   53.2081 H       1  ZINC001492779707    0.0700
     46 H46       -12.6553   -2.2238   54.1531 H       1  ZINC001492779707    0.0700
     47 H47        -8.5918   -0.4866   52.0730 H       1  ZINC001492779707    0.1300
     48 H48        -3.1477    4.7514   52.4901 H       1  ZINC001492779707    0.1000
     49 H49        -4.9261    4.7745   52.5589 H       1  ZINC001492779707    0.1000
     50 H50        -5.0049    2.6305   53.6372 H       1  ZINC001492779707    0.0900
     51 H51        -3.2860    2.3188   53.2957 H       1  ZINC001492779707    0.0800
     52 H52        -4.6342    5.6206   54.4761 H       1  ZINC001492779707    0.1100
     53 H53        -5.6649    4.3812   55.2338 H       1  ZINC001492779707    0.0600
     54 H54        -4.0670    4.8500   58.4920 H       1  ZINC001492779707    0.1100
     55 H55        -5.3248    3.9192   57.6412 H       1  ZINC001492779707    0.0600
     56 H56        -2.3112    3.7459   57.1823 H       1  ZINC001492779707    0.0600
     57 H57        -3.3419    2.5065   57.9399 H       1  ZINC001492779707    0.1100
@<TRIPOS>BOND
     1     1     2    1
     2     1    29    1
     3     1    30    1
     4     1    31    1
     5     2    19    1
     6     2     3    2
     7     3     4    1
     8     4     5    2
     9     5     6    1
    10     5    19    1
    11     6     7    1
    12     6     8    1
    13     7    32    1
    14     7    33    1
    15     7    34    1
    16     8     9    1
    17     8    35    1
    18     8    36    1
    19     9    18   ar
    20     9    10   ar
    21    10    11   ar
    22    10    37    1
    23    11    12   ar
    24    11    38    1
    25    12    13   ar
    26    12    39    1
    27    13    14    1
    28    13    18   ar
    29    14    15    1
    30    15    16    1
    31    15    17    1
    32    15    40    1
    33    16    41    1
    34    16    42    1
    35    16    43    1
    36    17    44    1
    37    17    45    1
    38    17    46    1
    39    18    47    1
    40    19    20    1
    41    20    21    1
    42    20    48    1
    43    20    49    1
    44    21    22    1
    45    21    50    1
    46    21    51    1
    47    22    23    1
    48    22    28    1
    49    22    24    1
    50    24    25    1
    51    24    52    1
    52    24    53    1
    53    25    26    1
    54    26    27    1
    55    26    54    1
    56    26    55    1
    57    27    28    1
    58    27    56    1
    59    27    57    1
@<TRIPOS>SUBSTRUCTURE
     1 ZINC001492779707        1 TEMP              0 ****  ****    0 ROOT


##########                                Name:    ZINC000284209281
##########                DOCK_Rotatable_Bonds:                   8
##########                         Heavy_Atoms:                  26
##########                    Molecular_Weight:             353.424
##########                DOCK_Rotatable_Bonds:                   8
##########                       Formal_Charge:          0.00999954
##########                     HBond_Acceptors:                   7
##########                        HBond_Donors:                   1
##########                         Heavy_Atoms:                  26
##########                          Grid_Score:          -33.796822
##########                     Grid_vdw_energy:          -33.866745
##########                      Grid_es_energy:            0.069922
##########           Internal_energy_repulsive:           11.808187

@<TRIPOS>MOLECULE
ZINC000284209281
 49 51 1 0 0
SMALL
USER_CHARGES


@<TRIPOS>ATOM
      1 O1         -7.3549   -0.1868   51.3009 O.2     1  <0>        -0.5100
      2 C2         -7.4671    1.0180   51.3920 C.2     1  <0>         0.5100
      3 N3         -8.2499    1.5513   52.3508 N.am    1  <0>        -0.7000
      4 C4         -8.9702    0.6764   53.2790 C.3     1  <0>         0.1200
      5 C5        -10.2004    0.0939   52.5802 C.3     1  <0>        -0.1000
      6 C6        -10.8498   -0.9291   53.4762 C.ar    1  <0>        -0.0400
      7 C7        -11.0192   -0.6815   54.8299 C.ar    1  <0>        -0.1700
      8 C8        -11.6188   -1.6433   55.6206 C.ar    1  <0>         0.1000
      9 N9        -12.0269   -2.7847   55.1016 N.ar    1  <0>        -0.4900
     10 C10       -11.8822   -3.0543   53.8188 C.ar    1  <0>         0.1000
     11 C11       -11.2971   -2.1380   52.9655 C.ar    1  <0>        -0.1700
     12 C12        -6.7322    1.9107   50.4451 C.2     1  <0>         0.5100
     13 O13        -7.3325    2.4774   49.5557 O.2     1  <0>        -0.5200
     14 N14        -5.4025    2.0862   50.5789 N.am    1  <0>        -0.5800
     15 C15        -4.6610    2.9647   49.6616 C.3     1  <0>         0.0800
     16 C16        -3.8285    3.9459   50.4939 C.3     1  <0>         0.0400
     17 N17        -2.9963    3.1944   51.4430 N.3     1  <0>        -0.5300
     18 C18        -2.0584    4.0846   52.1401 C.3     1  <0>         0.1000
     19 C19        -0.6466    3.6169   51.8965 C.ar    1  <0>         0.1300
     20 C20        -0.1693    3.5314   50.6025 C.ar    1  <0>        -0.1500
     21 C21         1.1313    3.1004   50.3891 C.ar    1  <0>        -0.0700
     22 C22         1.9060    2.7702   51.4904 C.ar    1  <0>        -0.1700
     23 C23         1.3601    2.8807   52.7554 C.ar    1  <0>         0.1000
     24 N24         0.1207    3.2991   52.9209 N.ar    1  <0>        -0.4800
     25 C25        -3.8224    2.4465   52.4000 C.3     1  <0>         0.0400
     26 C26        -4.6557    1.4088   51.6496 C.3     1  <0>         0.1100
     27 H27        -8.3363    2.5146   52.4262 H       1  <0>         0.4100
     28 H28        -8.3148   -0.1346   53.5967 H       1  <0>         0.0800
     29 H29        -9.2852    1.2512   54.1499 H       1  <0>         0.0800
     30 H30       -10.9101    0.8934   52.3677 H       1  <0>         0.0900
     31 H31        -9.8974   -0.3806   51.6468 H       1  <0>         0.0900
     32 H32       -10.6864    0.2512   55.2610 H       1  <0>         0.1400
     33 H33       -11.7545   -1.4581   56.6759 H       1  <0>         0.1600
     34 H34       -12.2287   -4.0004   53.4299 H       1  <0>         0.1600
     35 H35       -11.1818   -2.3644   51.9159 H       1  <0>         0.1400
     36 H36        -4.0014    2.3657   49.0339 H       1  <0>         0.0800
     37 H37        -5.3626    3.5179   49.0371 H       1  <0>         0.1400
     38 H38        -3.1888    4.5314   49.8335 H       1  <0>         0.0900
     39 H39        -4.4935    4.6131   51.0423 H       1  <0>         0.0400
     40 H40        -2.1744    5.1010   51.7640 H       1  <0>         0.0900
     41 H41        -2.2675    4.0668   53.2097 H       1  <0>         0.0600
     42 H42        -0.8013    3.7967   49.7679 H       1  <0>         0.1400
     43 H43         1.5312    3.0235   49.3888 H       1  <0>         0.1400
     44 H44         2.9230    2.4305   51.3615 H       1  <0>         0.1400
     45 H45         1.9569    2.6250   53.6185 H       1  <0>         0.1600
     46 H46        -3.1783    1.9447   53.1221 H       1  <0>         0.1000
     47 H47        -4.4875    3.1346   52.9220 H       1  <0>         0.0400
     48 H48        -5.3523    0.9311   52.3385 H       1  <0>         0.1000
     49 H49        -3.9977    0.6587   51.2110 H       1  <0>         0.0800
@<TRIPOS>BOND
     1     1     2    2
     2     2     3   am
     3     2    12    1
     4     3     4    1
     5     3    27    1
     6     4     5    1
     7     4    28    1
     8     4    29    1
     9     5     6    1
    10     5    30    1
    11     5    31    1
    12     6    11   ar
    13     6     7   ar
    14     7     8   ar
    15     7    32    1
    16     8     9   ar
    17     8    33    1
    18     9    10   ar
    19    10    11   ar
    20    10    34    1
    21    11    35    1
    22    12    13    2
    23    12    14   am
    24    14    26    1
    25    14    15    1
    26    15    16    1
    27    15    36    1
    28    15    37    1
    29    16    17    1
    30    16    38    1
    31    16    39    1
    32    17    18    1
    33    17    25    1
    34    18    19    1
    35    18    40    1
    36    18    41    1
    37    19    24   ar
    38    19    20   ar
    39    20    21   ar
    40    20    42    1
    41    21    22   ar
    42    21    43    1
    43    22    23   ar
    44    22    44    1
    45    23    24   ar
    46    23    45    1
    47    25    26    1
    48    25    46    1
    49    25    47    1
    50    26    48    1
    51    26    49    1
@<TRIPOS>SUBSTRUCTURE
     1 <0>         1 TEMP              0 ****  ****    0 ROOT


##########                                Name:    ZINC000744839011
##########                DOCK_Rotatable_Bonds:                  10
##########                         Heavy_Atoms:                  24
##########                    Molecular_Weight:              378.83
##########                DOCK_Rotatable_Bonds:                  10
##########                       Formal_Charge:           0.0300002
##########                     HBond_Acceptors:                   9
##########                        HBond_Donors:                   0
##########                         Heavy_Atoms:                  24
##########                          Grid_Score:          -33.793980
##########                     Grid_vdw_energy:          -33.226166
##########                      Grid_es_energy:           -0.567813
##########           Internal_energy_repulsive:            8.767882

@<TRIPOS>MOLECULE
ZINC000744839011
 43 43 1 0 0
SMALL
USER_CHARGES


@<TRIPOS>ATOM
      1 C1        -11.5883   -1.5620   59.4764 C.3     1  ZINC000744839011    0.0400
      2 O2        -10.9141   -1.0897   58.2802 O.3     1  ZINC000744839011   -0.3600
      3 C3        -11.6912   -0.6149   57.2871 C.2     1  ZINC000744839011    0.5100
      4 O4        -12.8570   -0.3486   57.5023 O.2     1  ZINC000744839011   -0.5000
      5 C5        -11.1267   -0.4186   55.9389 C.ar    1  ZINC000744839011   -0.1600
      6 C6        -10.2073    0.6082   55.7069 C.ar    1  ZINC000744839011   -0.0100
      7 C7         -9.6819    0.7882   54.4467 C.ar    1  ZINC000744839011   -0.2100
      8 C8        -10.0643   -0.0491   53.4058 C.ar    1  ZINC000744839011    0.1800
      9 O9         -9.5440    0.1320   52.1654 O.3     1  ZINC000744839011   -0.2900
     10 C10        -8.3745   -0.6203   51.8364 C.3     1  ZINC000744839011    0.0500
     11 C11        -7.1903    0.3315   51.6552 C.3     1  ZINC000744839011    0.0600
     12 O12        -7.4862    1.2755   50.5924 O.3     1  ZINC000744839011   -0.3400
     13 C13        -6.5745    2.2316   50.3551 C.2     1  ZINC000744839011    0.5000
     14 O14        -6.8359    3.1430   49.6063 O.2     1  ZINC000744839011   -0.4900
     15 C15        -5.2250    2.1683   51.0228 C.3     1  ZINC000744839011   -0.6400
     16 S16        -4.1145    3.3817   50.2580 S.o2    1  ZINC000744839011    2.4400
     17 O17        -3.9838    3.0693   48.8780 O.2     1  ZINC000744839011   -0.9100
     18 O18        -4.5369    4.6844   50.6375 O.2     1  ZINC000744839011   -0.9100
     19 C19        -2.5400    3.0214   51.0837 C.3     1  ZINC000744839011   -0.5700
     20 C20        -1.4357    3.8898   50.4773 C.3     1  ZINC000744839011   -0.1500
     21 C21        -2.6661    3.3265   52.5777 C.3     1  ZINC000744839011   -0.1500
     22 C22       -10.9788   -1.0730   53.6320 C.ar    1  ZINC000744839011   -0.0800
     23 Cl23      -11.4523   -2.1163   52.3276 Cl      1  ZINC000744839011   -0.0400
     24 C24       -11.5053   -1.2628   54.8907 C.ar    1  ZINC000744839011   -0.0100
     25 H25       -12.1607   -0.7457   59.9171 H       1  ZINC000744839011    0.0700
     26 H26       -12.2617   -2.3785   59.2155 H       1  ZINC000744839011    0.0700
     27 H27       -10.8488   -1.9162   60.1944 H       1  ZINC000744839011    0.1100
     28 H28        -9.9096    1.2600   56.5150 H       1  ZINC000744839011    0.1500
     29 H29        -8.9718    1.5819   54.2670 H       1  ZINC000744839011    0.1500
     30 H30        -8.1561   -1.3228   52.6408 H       1  ZINC000744839011    0.0900
     31 H31        -8.5442   -1.1695   50.9104 H       1  ZINC000744839011    0.1000
     32 H32        -7.0146    0.8738   52.5843 H       1  ZINC000744839011    0.1100
     33 H33        -6.3002   -0.2413   51.3950 H       1  ZINC000744839011    0.0900
     34 H34        -5.3336    2.3933   52.0838 H       1  ZINC000744839011    0.1700
     35 H35        -4.8075    1.1684   50.9044 H       1  ZINC000744839011    0.1700
     36 H36        -2.2907    1.9691   50.9474 H       1  ZINC000744839011    0.1400
     37 H37        -0.4897    3.6733   50.9734 H       1  ZINC000744839011    0.0900
     38 H38        -1.3459    3.6724   49.4129 H       1  ZINC000744839011    0.0700
     39 H39        -1.6850    4.9421   50.6135 H       1  ZINC000744839011    0.0800
     40 H40        -3.4526    2.7079   53.0097 H       1  ZINC000744839011    0.0800
     41 H41        -1.7199    3.1101   53.0738 H       1  ZINC000744839011    0.0900
     42 H42        -2.9152    4.3788   52.7139 H       1  ZINC000744839011    0.0800
     43 H43       -12.2152   -2.0576   55.0658 H       1  ZINC000744839011    0.1600
@<TRIPOS>BOND
     1     1     2    1
     2     1    25    1
     3     1    26    1
     4     1    27    1
     5     2     3    1
     6     3     4    2
     7     3     5    1
     8     5    24   ar
     9     5     6   ar
    10     6     7   ar
    11     6    28    1
    12     7     8   ar
    13     7    29    1
    14     8     9    1
    15     8    22   ar
    16     9    10    1
    17    10    11    1
    18    10    30    1
    19    10    31    1
    20    11    12    1
    21    11    32    1
    22    11    33    1
    23    12    13    1
    24    13    14    2
    25    13    15    1
    26    15    16    1
    27    15    34    1
    28    15    35    1
    29    16    17    2
    30    16    18    2
    31    16    19    1
    32    19    20    1
    33    19    21    1
    34    19    36    1
    35    20    37    1
    36    20    38    1
    37    20    39    1
    38    21    40    1
    39    21    41    1
    40    21    42    1
    41    22    23    1
    42    22    24   ar
    43    24    43    1
@<TRIPOS>SUBSTRUCTURE
     1 ZINC000744839011        1 TEMP              0 ****  ****    0 ROOT


##########                                Name:    ZINC000600609084
##########                DOCK_Rotatable_Bonds:                   8
##########                         Heavy_Atoms:                  30
##########                    Molecular_Weight:             422.548
##########                DOCK_Rotatable_Bonds:                   8
##########                       Formal_Charge:           0.0100005
##########                     HBond_Acceptors:                   6
##########                        HBond_Donors:                   2
##########                         Heavy_Atoms:                  30
##########                          Grid_Score:          -33.788383
##########                     Grid_vdw_energy:          -32.664242
##########                      Grid_es_energy:           -1.124140
##########           Internal_energy_repulsive:           20.659710

@<TRIPOS>MOLECULE
ZINC000600609084
 56 59 1 0 0
SMALL
USER_CHARGES


@<TRIPOS>ATOM
      1 O1         -9.6245   -1.6217   52.6127 O.2     1  ZINC000600609084   -0.5300
      2 C2        -10.3098   -1.0367   53.4245 C.2     1  ZINC000600609084    0.5200
      3 C3        -11.5503   -1.6920   53.9750 C.3     1  ZINC000600609084   -0.1500
      4 C4        -11.4843   -1.7059   55.5035 C.3     1  ZINC000600609084    0.1300
      5 N5        -10.9409   -2.9884   55.9572 N.am    1  ZINC000600609084   -1.1200
      6 S6        -11.6472   -3.7848   57.2258 S.o2    1  ZINC000600609084    2.7000
      7 O7        -13.0253   -3.9110   56.9032 O.2     1  ZINC000600609084   -0.9600
      8 O8        -10.8119   -4.8972   57.5163 O.2     1  ZINC000600609084   -0.9500
      9 C9        -11.5594   -2.7179   58.6254 C.ar    1  ZINC000600609084   -0.6700
     10 C10       -12.7252   -2.1361   59.1190 C.ar    1  ZINC000600609084   -0.0400
     11 C11       -12.6923   -1.3073   60.1984 C.ar    1  ZINC000600609084   -0.1200
     12 C12       -11.4659   -1.0325   60.8266 C.ar    1  ZINC000600609084   -0.0100
     13 C13       -11.3921   -0.1826   61.9435 C.ar    1  ZINC000600609084   -0.1200
     14 C14       -10.1866    0.0604   62.5263 C.ar    1  ZINC000600609084   -0.0900
     15 C15        -9.0203   -0.5216   62.0325 C.ar    1  ZINC000600609084   -0.1200
     16 C16        -9.0532   -1.3497   60.9530 C.ar    1  ZINC000600609084   -0.0900
     17 C17       -10.2799   -1.6245   60.3244 C.ar    1  ZINC000600609084   -0.0800
     18 C18       -10.3543   -2.4790   59.2117 C.ar    1  ZINC000600609084    0.0200
     19 N19        -9.9590    0.1970   53.8385 N.am    1  ZINC000600609084   -0.7200
     20 C20        -8.7532    0.8339   53.3033 C.3     1  ZINC000600609084    0.1400
     21 H21        -7.9274    0.1226   53.2961 H       1  ZINC000600609084    0.1000
     22 C22        -9.0177    1.3490   51.8776 C.3     1  ZINC000600609084   -0.1300
     23 C23        -8.7997    2.8757   51.9131 C.3     1  ZINC000600609084   -0.1300
     24 C24        -9.0215    3.2567   53.3979 C.3     1  ZINC000600609084   -0.1200
     25 C25        -8.3830    2.0649   54.1561 C.3     1  ZINC000600609084   -0.0700
     26 H26        -7.3005    2.1819   54.2084 H       1  ZINC000600609084    0.0900
     27 C27        -8.9669    1.9467   55.5404 C.ar    1  ZINC000600609084   -0.0600
     28 C28        -8.1456    1.6604   56.6148 C.ar    1  ZINC000600609084   -0.1100
     29 C29        -8.6812    1.5519   57.8845 C.ar    1  ZINC000600609084   -0.1200
     30 C30       -10.0381    1.7303   58.0799 C.ar    1  ZINC000600609084   -0.1200
     31 C31       -10.8591    2.0175   57.0055 C.ar    1  ZINC000600609084   -0.1200
     32 C32       -10.3229    2.1302   55.7365 C.ar    1  ZINC000600609084   -0.1100
     33 H33       -12.4293   -1.1331   53.6543 H       1  ZINC000600609084    0.1000
     34 H34       -11.6154   -2.7152   53.6048 H       1  ZINC000600609084    0.1000
     35 H35       -10.8401   -0.8964   55.8468 H       1  ZINC000600609084    0.0900
     36 H36       -12.4860   -1.5709   55.9116 H       1  ZINC000600609084    0.0800
     37 H37       -10.1672   -3.3712   55.5146 H       1  ZINC000600609084    0.4200
     38 H38       -13.6691   -2.3454   58.6377 H       1  ZINC000600609084    0.1400
     39 H39       -13.6040   -0.8631   60.5698 H       1  ZINC000600609084    0.1400
     40 H40       -12.2875    0.2758   62.3369 H       1  ZINC000600609084    0.1300
     41 H41       -10.1327    0.7143   63.3841 H       1  ZINC000600609084    0.1300
     42 H42        -8.0764   -0.3119   62.5134 H       1  ZINC000600609084    0.1300
     43 H43        -8.1414   -1.7933   60.5811 H       1  ZINC000600609084    0.1300
     44 H44        -9.4595   -2.9408   58.8211 H       1  ZINC000600609084    0.1500
     45 H45       -10.5050    0.6631   54.4908 H       1  ZINC000600609084    0.4000
     46 H46        -8.3197    0.8882   51.1787 H       1  ZINC000600609084    0.0800
     47 H47       -10.0433    1.1249   51.5839 H       1  ZINC000600609084    0.0700
     48 H48        -7.7844    3.1233   51.6033 H       1  ZINC000600609084    0.0700
     49 H49        -9.5273    3.3799   51.2771 H       1  ZINC000600609084    0.0700
     50 H50        -8.5077    4.1874   53.6388 H       1  ZINC000600609084    0.0700
     51 H51       -10.0854    3.3322   53.6225 H       1  ZINC000600609084    0.0700
     52 H52        -7.0856    1.5211   56.4622 H       1  ZINC000600609084    0.1200
     53 H53        -8.0397    1.3276   58.7238 H       1  ZINC000600609084    0.1200
     54 H54       -10.4566    1.6447   59.0718 H       1  ZINC000600609084    0.1200
     55 H55       -11.9193    2.1564   57.1582 H       1  ZINC000600609084    0.1200
     56 H56       -10.9645    2.3545   54.8972 H       1  ZINC000600609084    0.1200
@<TRIPOS>BOND
     1     1     2    2
     2     2     3    1
     3     2    19   am
     4     3     4    1
     5     3    33    1
     6     3    34    1
     7     4     5    1
     8     4    35    1
     9     4    36    1
    10     5     6   am
    11     5    37    1
    12     6     7    2
    13     6     8    2
    14     6     9    1
    15     9    18   ar
    16     9    10   ar
    17    10    11   ar
    18    10    38    1
    19    11    12   ar
    20    11    39    1
    21    12    17   ar
    22    12    13   ar
    23    13    14   ar
    24    13    40    1
    25    14    15   ar
    26    14    41    1
    27    15    16   ar
    28    15    42    1
    29    16    17   ar
    30    16    43    1
    31    17    18   ar
    32    18    44    1
    33    19    20    1
    34    19    45    1
    35    20    21    1
    36    20    25    1
    37    20    22    1
    38    22    23    1
    39    22    46    1
    40    22    47    1
    41    23    24    1
    42    23    48    1
    43    23    49    1
    44    24    25    1
    45    24    50    1
    46    24    51    1
    47    25    26    1
    48    25    27    1
    49    27    32   ar
    50    27    28   ar
    51    28    29   ar
    52    28    52    1
    53    29    30   ar
    54    29    53    1
    55    30    31   ar
    56    30    54    1
    57    31    32   ar
    58    31    55    1
    59    32    56    1
@<TRIPOS>SUBSTRUCTURE
     1 ZINC000600609084        1 TEMP              0 ****  ****    0 ROOT


##########                                Name:    ZINC000051488227
##########                DOCK_Rotatable_Bonds:                   8
##########                         Heavy_Atoms:                  30
##########                    Molecular_Weight:             403.478
##########                DOCK_Rotatable_Bonds:                   8
##########                       Formal_Charge:           0.0199996
##########                     HBond_Acceptors:                   5
##########                        HBond_Donors:                   0
##########                         Heavy_Atoms:                  30
##########                          Grid_Score:          -33.787983
##########                     Grid_vdw_energy:          -31.887861
##########                      Grid_es_energy:           -1.900123
##########           Internal_energy_repulsive:           23.179373

@<TRIPOS>MOLECULE
ZINC000051488227
 55 58 1 0 0
SMALL
USER_CHARGES


@<TRIPOS>ATOM
      1 O1        -11.8449   -4.3961   56.9897 O.2     1  ZINC000051488227   -0.5000
      2 C2        -12.4165   -3.3467   57.1688 C.2     1  ZINC000051488227    0.4800
      3 O3        -11.9676   -2.4879   58.0976 O.3     1  ZINC000051488227   -0.3400
      4 C4        -10.7700   -2.8698   58.8245 C.3     1  ZINC000051488227    0.1100
      5 C5        -10.5828   -1.9493   60.0029 C.ar    1  ZINC000051488227   -0.1400
      6 C6        -11.6657   -1.2650   60.5231 C.ar    1  ZINC000051488227   -0.0500
      7 C7        -11.4967   -0.4205   61.6032 C.ar    1  ZINC000051488227   -0.1500
      8 C8        -10.2390   -0.2597   62.1663 C.ar    1  ZINC000051488227    0.1500
      9 O9        -10.0702    0.5701   63.2293 O.3     1  ZINC000051488227   -0.3100
     10 C10        -8.7379    0.7339   63.7192 C.3     1  ZINC000051488227    0.1100
     11 C11        -8.7465    1.6821   64.8905 C.ar    1  ZINC000051488227    0.1200
     12 C12        -7.6408    2.4735   65.1365 C.ar    1  ZINC000051488227   -0.1500
     13 C13        -7.6591    3.3431   66.2166 C.ar    1  ZINC000051488227   -0.0700
     14 C14        -8.7940    3.3838   67.0117 C.ar    1  ZINC000051488227   -0.1700
     15 C15        -9.8620    2.5620   66.7038 C.ar    1  ZINC000051488227    0.1100
     16 N16        -9.8113    1.7509   65.6655 N.ar    1  ZINC000051488227   -0.4800
     17 C17        -9.1541   -0.9479   61.6428 C.ar    1  ZINC000051488227   -0.2100
     18 C18        -9.3293   -1.7948   60.5656 C.ar    1  ZINC000051488227   -0.0500
     19 C19       -13.6297   -2.9994   56.3450 C.3     1  ZINC000051488227    0.0000
     20 C20       -13.2125   -2.1689   55.1588 C.ar    1  ZINC000051488227   -0.0900
     21 C21       -11.8716   -1.9402   54.9124 C.ar    1  ZINC000051488227   -0.1100
     22 C22       -11.4889   -1.1784   53.8242 C.ar    1  ZINC000051488227   -0.1200
     23 C23       -12.4470   -0.6456   52.9822 C.ar    1  ZINC000051488227   -0.1100
     24 C24       -13.7878   -0.8750   53.2281 C.ar    1  ZINC000051488227   -0.1200
     25 C25       -14.1704   -1.6404   54.3137 C.ar    1  ZINC000051488227   -0.1000
     26 C26       -14.3051   -4.2858   55.8600 C.3     1  ZINC000051488227   -0.1400
     27 C27       -14.7938   -5.0844   57.0713 C.3     1  ZINC000051488227    0.0600
     28 O28       -15.6879   -4.2790   57.8419 O.3     1  ZINC000051488227   -0.3800
     29 C29       -15.0977   -3.0857   58.3616 C.3     1  ZINC000051488227    0.0500
     30 C30       -14.6214   -2.2069   57.2021 C.3     1  ZINC000051488227   -0.1400
     31 H31       -10.8710   -3.8960   59.1776 H       1  ZINC000051488227    0.0800
     32 H32        -9.9055   -2.7958   58.1647 H       1  ZINC000051488227    0.0800
     33 H33       -12.6446   -1.3905   60.0843 H       1  ZINC000051488227    0.1300
     34 H34       -12.3428    0.1143   62.0087 H       1  ZINC000051488227    0.1400
     35 H35        -8.3462   -0.2324   64.0369 H       1  ZINC000051488227    0.0900
     36 H36        -8.1072    1.1394   62.9281 H       1  ZINC000051488227    0.0900
     37 H37        -6.7732    2.4154   64.4960 H       1  ZINC000051488227    0.1400
     38 H38        -6.8094    3.9734   66.4333 H       1  ZINC000051488227    0.1400
     39 H39        -8.8429    4.0488   67.8613 H       1  ZINC000051488227    0.1400
     40 H40       -10.7497    2.5875   67.3185 H       1  ZINC000051488227    0.1600
     41 H41        -8.1740   -0.8241   62.0792 H       1  ZINC000051488227    0.1300
     42 H42        -8.4851   -2.3310   60.1579 H       1  ZINC000051488227    0.1300
     43 H43       -11.1231   -2.3565   55.5703 H       1  ZINC000051488227    0.1300
     44 H44       -10.4414   -0.9991   53.6322 H       1  ZINC000051488227    0.1300
     45 H45       -12.1480   -0.0498   52.1324 H       1  ZINC000051488227    0.1200
     46 H46       -14.5365   -0.4585   52.5704 H       1  ZINC000051488227    0.1200
     47 H47       -15.2180   -1.8196   54.5058 H       1  ZINC000051488227    0.1300
     48 H48       -15.1534   -4.0342   55.2234 H       1  ZINC000051488227    0.0900
     49 H49       -13.5890   -4.8826   55.2951 H       1  ZINC000051488227    0.0900
     50 H50       -15.3131   -5.9801   56.7308 H       1  ZINC000051488227    0.1000
     51 H51       -13.9405   -5.3704   57.6863 H       1  ZINC000051488227    0.0500
     52 H52       -15.8362   -2.5417   58.9505 H       1  ZINC000051488227    0.1000
     53 H53       -14.2485   -3.3456   58.9935 H       1  ZINC000051488227    0.0700
     54 H54       -14.1315   -1.3169   57.5970 H       1  ZINC000051488227    0.0900
     55 H55       -15.4760   -1.9133   56.5926 H       1  ZINC000051488227    0.0900
@<TRIPOS>BOND
     1     1     2    2
     2     2     3    1
     3     2    19    1
     4     3     4    1
     5     4     5    1
     6     4    31    1
     7     4    32    1
     8     5    18   ar
     9     5     6   ar
    10     6     7   ar
    11     6    33    1
    12     7     8   ar
    13     7    34    1
    14     8     9    1
    15     8    17   ar
    16     9    10    1
    17    10    11    1
    18    10    35    1
    19    10    36    1
    20    11    16   ar
    21    11    12   ar
    22    12    13   ar
    23    12    37    1
    24    13    14   ar
    25    13    38    1
    26    14    15   ar
    27    14    39    1
    28    15    16   ar
    29    15    40    1
    30    17    18   ar
    31    17    41    1
    32    18    42    1
    33    19    30    1
    34    19    20    1
    35    19    26    1
    36    20    25   ar
    37    20    21   ar
    38    21    22   ar
    39    21    43    1
    40    22    23   ar
    41    22    44    1
    42    23    24   ar
    43    23    45    1
    44    24    25   ar
    45    24    46    1
    46    25    47    1
    47    26    27    1
    48    26    48    1
    49    26    49    1
    50    27    28    1
    51    27    50    1
    52    27    51    1
    53    28    29    1
    54    29    30    1
    55    29    52    1
    56    29    53    1
    57    30    54    1
    58    30    55    1
@<TRIPOS>SUBSTRUCTURE
     1 ZINC000051488227        1 TEMP              0 ****  ****    0 ROOT


##########                                Name:    ZINC000190927708
##########                DOCK_Rotatable_Bonds:                  10
##########                         Heavy_Atoms:                  26
##########                    Molecular_Weight:             358.437
##########                DOCK_Rotatable_Bonds:                  10
##########                       Formal_Charge:           0.0499998
##########                     HBond_Acceptors:                   6
##########                        HBond_Donors:                   1
##########                         Heavy_Atoms:                  26
##########                          Grid_Score:          -33.782715
##########                     Grid_vdw_energy:          -31.673470
##########                      Grid_es_energy:           -2.109243
##########           Internal_energy_repulsive:           28.695890

@<TRIPOS>MOLECULE
ZINC000190927708
 52 53 1 0 0
SMALL
USER_CHARGES


@<TRIPOS>ATOM
      1 C1        -15.1774   -4.5263   57.4272 C.3     1  ZINC000190927708   -0.1500
      2 C2        -14.6381   -3.2620   56.7551 C.3     1  ZINC000190927708   -0.1500
      3 C3        -13.2339   -3.5327   56.2114 C.3     1  ZINC000190927708    0.1000
      4 N4        -12.4708   -2.2825   56.1858 N.am    1  ZINC000190927708   -0.5900
      5 C5        -11.9693   -1.7755   57.3295 C.2     1  ZINC000190927708    0.5300
      6 O6        -11.3362   -0.7413   57.3081 O.2     1  ZINC000190927708   -0.5300
      7 C7        -12.1951   -2.4938   58.6348 C.3     1  ZINC000190927708   -0.0800
      8 C8        -11.2567   -1.9456   59.6789 C.2     1  ZINC000190927708   -0.1700
      9 C9        -11.7130   -1.0603   60.5991 C.2     1  ZINC000190927708    0.0000
     10 C10       -10.7760   -0.5469   61.6001 C.ar    1  ZINC000190927708   -0.1300
     11 C11       -11.1880    0.3672   62.5750 C.ar    1  ZINC000190927708   -0.0500
     12 C12       -10.2890    0.8265   63.4958 C.ar    1  ZINC000190927708   -0.1500
     13 C13        -8.9705    0.3940   63.4723 C.ar    1  ZINC000190927708   -0.0600
     14 C14        -8.5421   -0.5063   62.5204 C.ar    1  ZINC000190927708   -0.1600
     15 C15        -9.4393   -0.9880   61.5732 C.ar    1  ZINC000190927708    0.1900
     16 N16        -9.0384   -1.8894   60.6101 N.am    1  ZINC000190927708   -0.6300
     17 C17        -9.9077   -2.3600   59.6987 C.2     1  ZINC000190927708    0.5500
     18 O18        -9.5183   -3.1559   58.8617 O.2     1  ZINC000190927708   -0.5300
     19 C19       -12.2527   -1.5832   54.9170 C.3     1  ZINC000190927708    0.1500
     20 H20       -11.7941   -0.6135   55.1108 H       1  ZINC000190927708    0.1400
     21 C21       -13.5939   -1.3807   54.2092 C.3     1  ZINC000190927708   -0.1300
     22 C22       -14.3037   -0.1611   54.8003 C.3     1  ZINC000190927708   -0.1500
     23 C23       -11.3413   -2.4038   54.0413 C.2     1  ZINC000190927708    0.4500
     24 O24       -10.6247   -3.2428   54.5338 O.2     1  ZINC000190927708   -0.5000
     25 O25       -11.3256   -2.2028   52.7143 O.3     1  ZINC000190927708   -0.3500
     26 C26       -11.0148   -0.8611   52.2544 C.3     1  ZINC000190927708    0.0600
     27 C27        -9.5126   -0.6083   52.3967 C.3     1  ZINC000190927708   -0.1500
     28 H28       -14.5186   -4.8108   58.2477 H       1  ZINC000190927708    0.0600
     29 H29       -16.1778   -4.3335   57.8145 H       1  ZINC000190927708    0.0600
     30 H30       -15.2198   -5.3355   56.6981 H       1  ZINC000190927708    0.0600
     31 H31       -15.2969   -2.9775   55.9345 H       1  ZINC000190927708    0.0800
     32 H32       -14.5957   -2.4528   57.4842 H       1  ZINC000190927708    0.0700
     33 H33       -12.7284   -4.2539   56.8536 H       1  ZINC000190927708    0.0900
     34 H34       -13.3068   -3.9346   55.2008 H       1  ZINC000190927708    0.0900
     35 H35       -13.2254   -2.3448   58.9581 H       1  ZINC000190927708    0.1100
     36 H36       -12.0070   -3.5591   58.5006 H       1  ZINC000190927708    0.1200
     37 H37       -12.7446   -0.7408   60.5935 H       1  ZINC000190927708    0.1400
     38 H38       -12.2122    0.7088   62.5997 H       1  ZINC000190927708    0.1400
     39 H39       -10.6074    1.5328   64.2484 H       1  ZINC000190927708    0.1300
     40 H40        -8.2726    0.7669   64.2074 H       1  ZINC000190927708    0.1300
     41 H41        -7.5140   -0.8367   62.5105 H       1  ZINC000190927708    0.1300
     42 H42        -8.1168   -2.1915   60.5922 H       1  ZINC000190927708    0.4200
     43 H43       -13.4224   -1.2209   53.1447 H       1  ZINC000190927708    0.0900
     44 H44       -14.2153   -2.2654   54.3482 H       1  ZINC000190927708    0.0800
     45 H45       -15.2592   -0.0169   54.2961 H       1  ZINC000190927708    0.0600
     46 H46       -14.4751   -0.3209   55.8648 H       1  ZINC000190927708    0.0600
     47 H47       -13.6822    0.7236   54.6613 H       1  ZINC000190927708    0.0600
     48 H48       -11.3028   -0.7599   51.2080 H       1  ZINC000190927708    0.0700
     49 H49       -11.5639   -0.1352   52.8542 H       1  ZINC000190927708    0.0700
     50 H50        -9.2246   -0.7094   53.4431 H       1  ZINC000190927708    0.0700
     51 H51        -8.9635   -1.3342   51.7970 H       1  ZINC000190927708    0.0700
     52 H52        -9.2794    0.3990   52.0514 H       1  ZINC000190927708    0.0800
@<TRIPOS>BOND
     1     1     2    1
     2     1    28    1
     3     1    29    1
     4     1    30    1
     5     2     3    1
     6     2    31    1
     7     2    32    1
     8     3     4    1
     9     3    33    1
    10     3    34    1
    11     4     5   am
    12     4    19    1
    13     5     6    2
    14     5     7    1
    15     7     8    1
    16     7    35    1
    17     7    36    1
    18     8    17    1
    19     8     9    2
    20     9    10    1
    21     9    37    1
    22    10    15   ar
    23    10    11   ar
    24    11    12   ar
    25    11    38    1
    26    12    13   ar
    27    12    39    1
    28    13    14   ar
    29    13    40    1
    30    14    15   ar
    31    14    41    1
    32    15    16    1
    33    16    17   am
    34    16    42    1
    35    17    18    2
    36    19    20    1
    37    19    21    1
    38    19    23    1
    39    21    22    1
    40    21    43    1
    41    21    44    1
    42    22    45    1
    43    22    46    1
    44    22    47    1
    45    23    24    2
    46    23    25    1
    47    25    26    1
    48    26    27    1
    49    26    48    1
    50    26    49    1
    51    27    50    1
    52    27    51    1
    53    27    52    1
@<TRIPOS>SUBSTRUCTURE
     1 ZINC000190927708        1 TEMP              0 ****  ****    0 ROOT


##########                                Name:    ZINC001141221454
##########                DOCK_Rotatable_Bonds:                   7
##########                         Heavy_Atoms:                  27
##########                    Molecular_Weight:             369.439
##########                DOCK_Rotatable_Bonds:                   7
##########                       Formal_Charge:          0.00999935
##########                     HBond_Acceptors:                   6
##########                        HBond_Donors:                   1
##########                         Heavy_Atoms:                  27
##########                          Grid_Score:          -33.749199
##########                     Grid_vdw_energy:          -34.038525
##########                      Grid_es_energy:            0.289327
##########           Internal_energy_repulsive:           13.454906

@<TRIPOS>MOLECULE
ZINC001141221454
 51 54 1 0 0
SMALL
USER_CHARGES


@<TRIPOS>ATOM
      1 C1        -13.6067   -1.5398   61.0311 C.3     1  ZINC001141221454    0.0300
      2 O2        -13.9737   -1.6389   59.6535 O.3     1  ZINC001141221454   -0.3100
      3 C3        -13.0436   -2.1474   58.8021 C.ar    1  ZINC001141221454    0.0900
      4 C4        -11.8646   -2.6802   59.2994 C.ar    1  ZINC001141221454   -0.1800
      5 C5        -10.9206   -3.1971   58.4320 C.ar    1  ZINC001141221454   -0.0900
      6 C6        -11.1505   -3.1834   57.0691 C.ar    1  ZINC001141221454   -0.1200
      7 C7        -12.3253   -2.6523   56.5686 C.ar    1  ZINC001141221454   -0.0800
      8 C8        -12.5724   -2.6386   55.0821 C.3     1  ZINC001141221454    0.0900
      9 N9        -11.3480   -2.2214   54.3861 N.3     1  ZINC001141221454   -0.5100
     10 C10       -11.5388   -2.2444   52.9126 C.3     1  ZINC001141221454    0.0300
     11 C11       -10.4186   -1.3067   52.3919 C.3     1  ZINC001141221454   -0.0700
     12 C12       -10.3691   -0.2075   53.4690 C.3     1  ZINC001141221454   -0.1000
     13 C13       -10.5785    1.2580   53.1106 C.3     1  ZINC001141221454   -0.1400
     14 C14        -9.1982    0.7630   53.5528 C.3     1  ZINC001141221454   -0.1800
     15 H15        -8.8539    1.0521   54.5457 H       1  ZINC001141221454    0.1300
     16 C16        -8.1267    0.6552   52.4987 C.2     1  ZINC001141221454    0.5500
     17 O17        -7.2840   -0.2137   52.5772 O.2     1  ZINC001141221454   -0.5300
     18 N18        -8.1047    1.5241   51.4688 N.am    1  ZINC001141221454   -0.7300
     19 C19        -7.0619    1.4204   50.4450 C.3     1  ZINC001141221454    0.1700
     20 C20        -5.8668    2.2391   50.8605 C.ar    1  ZINC001141221454   -0.1600
     21 C21        -5.7846    3.5816   50.5250 C.ar    1  ZINC001141221454   -0.0600
     22 C22        -4.6666    4.2956   50.9290 C.ar    1  ZINC001141221454   -0.1700
     23 C23        -3.6785    3.6498   51.6474 C.ar    1  ZINC001141221454    0.1100
     24 N24        -3.7903    2.3707   51.9489 N.ar    1  ZINC001141221454   -0.4800
     25 C25        -4.8413    1.6621   51.5860 C.ar    1  ZINC001141221454    0.1200
     26 C26       -10.9937   -0.8243   54.7266 C.3     1  ZINC001141221454    0.0700
     27 C27       -13.2758   -2.1391   57.4321 C.ar    1  ZINC001141221454    0.0900
     28 F28       -14.4236   -1.6201   56.9437 F       1  ZINC001141221454   -0.1300
     29 H29       -14.4368   -1.1196   61.5989 H       1  ZINC001141221454    0.1000
     30 H30       -13.3684   -2.5314   61.4159 H       1  ZINC001141221454    0.0600
     31 H31       -12.7350   -0.8928   61.1292 H       1  ZINC001141221454    0.0600
     32 H32       -11.6834   -2.6913   60.3640 H       1  ZINC001141221454    0.1400
     33 H33       -10.0019   -3.6119   58.8197 H       1  ZINC001141221454    0.1300
     34 H34       -10.4112   -3.5880   56.3938 H       1  ZINC001141221454    0.1300
     35 H35       -12.8557   -3.6379   54.7516 H       1  ZINC001141221454    0.0600
     36 H36       -13.3764   -1.9389   54.8540 H       1  ZINC001141221454    0.0900
     37 H37       -11.4065   -3.2541   52.5238 H       1  ZINC001141221454    0.0800
     38 H38       -12.5213   -1.8545   52.6462 H       1  ZINC001141221454    0.0500
     39 H39        -9.4672   -1.8355   52.3354 H       1  ZINC001141221454    0.0900
     40 H40       -10.6863   -0.8861   51.4226 H       1  ZINC001141221454    0.0700
     41 H41       -10.7112    1.5048   52.0573 H       1  ZINC001141221454    0.1000
     42 H42       -11.1418    1.8726   53.8128 H       1  ZINC001141221454    0.1100
     43 H43        -8.7793    2.2182   51.4053 H       1  ZINC001141221454    0.4000
     44 H44        -6.7663    0.3775   50.3317 H       1  ZINC001141221454    0.0800
     45 H45        -7.4461    1.7944   49.4960 H       1  ZINC001141221454    0.0800
     46 H46        -6.5724    4.0600   49.9621 H       1  ZINC001141221454    0.1400
     47 H47        -4.5691    5.3431   50.6849 H       1  ZINC001141221454    0.1400
     48 H48        -2.8045    4.1987   51.9654 H       1  ZINC001141221454    0.1600
     49 H49        -4.8976    0.6167   51.8511 H       1  ZINC001141221454    0.1600
     50 H50       -11.8894   -0.2706   55.0081 H       1  ZINC001141221454    0.0500
     51 H51       -10.2741   -0.8111   55.5452 H       1  ZINC001141221454    0.0900
@<TRIPOS>BOND
     1     1     2    1
     2     1    29    1
     3     1    30    1
     4     1    31    1
     5     2     3    1
     6     3    27   ar
     7     3     4   ar
     8     4     5   ar
     9     4    32    1
    10     5     6   ar
    11     5    33    1
    12     6     7   ar
    13     6    34    1
    14     7     8    1
    15     7    27   ar
    16     8     9    1
    17     8    35    1
    18     8    36    1
    19     9    26    1
    20     9    10    1
    21    10    11    1
    22    10    37    1
    23    10    38    1
    24    11    12    1
    25    11    39    1
    26    11    40    1
    27    12    14    1
    28    12    13    1
    29    12    26    1
    30    13    14    1
    31    13    41    1
    32    13    42    1
    33    14    15    1
    34    14    16    1
    35    16    17    2
    36    16    18   am
    37    18    19    1
    38    18    43    1
    39    19    20    1
    40    19    44    1
    41    19    45    1
    42    20    25   ar
    43    20    21   ar
    44    21    22   ar
    45    21    46    1
    46    22    23   ar
    47    22    47    1
    48    23    24   ar
    49    23    48    1
    50    24    25   ar
    51    25    49    1
    52    26    50    1
    53    26    51    1
    54    27    28    1
@<TRIPOS>SUBSTRUCTURE
     1 ZINC001141221454        1 TEMP              0 ****  ****    0 ROOT


##########                                Name:    ZINC000504243286
##########                DOCK_Rotatable_Bonds:                   7
##########                         Heavy_Atoms:                  29
##########                    Molecular_Weight:             408.337
##########                DOCK_Rotatable_Bonds:                   7
##########                       Formal_Charge:           0.0299994
##########                     HBond_Acceptors:                  11
##########                        HBond_Donors:                   3
##########                         Heavy_Atoms:                  29
##########                          Grid_Score:          -33.706802
##########                     Grid_vdw_energy:          -33.745071
##########                      Grid_es_energy:            0.038271
##########           Internal_energy_repulsive:           12.254029

@<TRIPOS>MOLECULE
ZINC000504243286
 44 46 1 0 0
SMALL
USER_CHARGES


@<TRIPOS>ATOM
      1 O1        -10.9816   -1.6109   51.5835 O.2     1  ZINC000504243286   -0.5200
      2 C2        -11.1735   -1.3982   52.7621 C.2     1  ZINC000504243286    0.5200
      3 C3        -12.2125   -2.1918   53.5116 C.3     1  ZINC000504243286   -0.1600
      4 C4        -11.9297   -2.1125   55.0131 C.3     1  ZINC000504243286    0.1300
      5 N5        -12.6228   -3.2059   55.6989 N.pl3   1  ZINC000504243286   -0.7200
      6 C6        -13.2114   -2.9861   56.9463 C.ar    1  ZINC000504243286    0.3100
      7 C7        -12.8186   -1.9015   57.7198 C.ar    1  ZINC000504243286   -0.1900
      8 C8        -13.4030   -1.6867   58.9528 C.ar    1  ZINC000504243286    0.0200
      9 C9        -14.3781   -2.5500   59.4172 C.ar    1  ZINC000504243286   -0.2400
     10 C10       -15.0139   -2.3121   60.7626 C.3     1  ZINC000504243286    0.5200
     11 F11       -14.2817   -2.9811   61.7493 F       1  ZINC000504243286   -0.1700
     12 F12       -15.0232   -0.9406   61.0381 F       1  ZINC000504243286   -0.1700
     13 F13       -16.3273   -2.7940   60.7494 F       1  ZINC000504243286   -0.1700
     14 C14       -14.7717   -3.6310   58.6495 C.ar    1  ZINC000504243286    0.0400
     15 C15       -14.1952   -3.8485   57.4137 C.ar    1  ZINC000504243286   -0.1200
     16 N16       -14.6170   -5.0056   56.5929 N.pl3   1  ZINC000504243286    0.0400
     17 O17       -14.7017   -4.8953   55.3828 O.2     1  ZINC000504243286   -0.1700
     18 O18       -14.8794   -6.0682   57.1273 O.2     1  ZINC000504243286   -0.1400
     19 N19       -10.4536   -0.4560   53.4028 N.am    1  ZINC000504243286   -0.6700
     20 C20        -9.4879    0.2817   52.7062 C.ar    1  ZINC000504243286    0.1200
     21 C21        -8.3286   -0.3361   52.2564 C.ar    1  ZINC000504243286   -0.1000
     22 C22        -7.3762    0.3873   51.5699 C.ar    1  ZINC000504243286   -0.1200
     23 C23        -7.5699    1.7448   51.3227 C.ar    1  ZINC000504243286    0.1300
     24 N24        -6.7644    2.6754   50.6616 N.am    1  ZINC000504243286   -0.6600
     25 C25        -7.3171    3.8998   50.6377 C.2     1  ZINC000504243286    0.5300
     26 O26        -6.8416    4.8950   50.1328 O.2     1  ZINC000504243286   -0.5000
     27 C27        -8.6447    3.8043   51.3587 C.3     1  ZINC000504243286   -0.1200
     28 C28        -8.7331    2.3545   51.7767 C.ar    1  ZINC000504243286   -0.1200
     29 C29        -9.6881    1.6347   52.4569 C.ar    1  ZINC000504243286   -0.0600
     30 H30       -13.2012   -1.7817   53.3058 H       1  ZINC000504243286    0.1100
     31 H31       -12.1767   -3.2326   53.1896 H       1  ZINC000504243286    0.1100
     32 H32       -10.8569   -2.1975   55.1858 H       1  ZINC000504243286    0.0800
     33 H33       -12.2855   -1.1576   55.3998 H       1  ZINC000504243286    0.0900
     34 H34       -12.6729   -4.0825   55.2868 H       1  ZINC000504243286    0.4100
     35 H35       -12.0567   -1.2270   57.3579 H       1  ZINC000504243286    0.1600
     36 H36       -13.0978   -0.8437   59.5550 H       1  ZINC000504243286    0.1600
     37 H37       -15.5336   -4.3035   59.0151 H       1  ZINC000504243286    0.1600
     38 H38       -10.6042   -0.2887   54.3463 H       1  ZINC000504243286    0.4200
     39 H39        -8.1720   -1.3878   52.4452 H       1  ZINC000504243286    0.1400
     40 H40        -6.4770   -0.0999   51.2229 H       1  ZINC000504243286    0.1300
     41 H41        -5.9051    2.4621   50.2654 H       1  ZINC000504243286    0.4100
     42 H42        -8.6519    4.4549   52.2332 H       1  ZINC000504243286    0.1300
     43 H43        -9.4637    4.0583   50.6859 H       1  ZINC000504243286    0.1300
     44 H44       -10.5898    2.1204   52.7996 H       1  ZINC000504243286    0.1500
@<TRIPOS>BOND
     1     1     2    2
     2     2     3    1
     3     2    19   am
     4     3     4    1
     5     3    30    1
     6     3    31    1
     7     4     5    1
     8     4    32    1
     9     4    33    1
    10     5     6    1
    11     5    34    1
    12     6    15   ar
    13     6     7   ar
    14     7     8   ar
    15     7    35    1
    16     8     9   ar
    17     8    36    1
    18     9    10    1
    19     9    14   ar
    20    10    11    1
    21    10    12    1
    22    10    13    1
    23    14    15   ar
    24    14    37    1
    25    15    16    1
    26    16    17    2
    27    16    18    2
    28    19    20    1
    29    19    38    1
    30    20    29   ar
    31    20    21   ar
    32    21    22   ar
    33    21    39    1
    34    22    23   ar
    35    22    40    1
    36    23    28   ar
    37    23    24    1
    38    24    25   am
    39    24    41    1
    40    25    26    2
    41    25    27    1
    42    27    28    1
    43    27    42    1
    44    27    43    1
    45    28    29   ar
    46    29    44    1
@<TRIPOS>SUBSTRUCTURE
     1 ZINC000504243286        1 TEMP              0 ****  ****    0 ROOT


##########                                Name:    ZINC000498646479
##########                DOCK_Rotatable_Bonds:                   7
##########                         Heavy_Atoms:                  29
##########                    Molecular_Weight:              407.58
##########                DOCK_Rotatable_Bonds:                   7
##########                       Formal_Charge:          -0.0199997
##########                     HBond_Acceptors:                   5
##########                        HBond_Donors:                   0
##########                         Heavy_Atoms:                  29
##########                          Grid_Score:          -33.697426
##########                     Grid_vdw_energy:          -33.386982
##########                      Grid_es_energy:           -0.310445
##########           Internal_energy_repulsive:           31.332132

@<TRIPOS>MOLECULE
ZINC000498646479
 58 61 1 0 0
SMALL
USER_CHARGES


@<TRIPOS>ATOM
      1 C1        -10.8401   -3.7826   57.9639 C.3     1  ZINC000498646479   -0.1500
      2 C2         -9.9541   -3.0903   59.0016 C.3     1  ZINC000498646479   -0.0600
      3 C3         -9.9633   -1.6031   58.7579 C.2     1  ZINC000498646479   -0.1700
      4 C4         -8.9548   -0.7733   59.0292 C.2     1  ZINC000498646479   -0.1400
      5 C5         -9.1926    0.5546   58.7187 C.2     1  ZINC000498646479   -0.1300
      6 C6        -10.3941    0.8030   58.1953 C.2     1  ZINC000498646479   -0.1900
      7 C7        -10.8942    2.1606   57.7736 C.3     1  ZINC000498646479    0.1300
      8 N8        -10.5759    2.3813   56.3565 N.3     1  ZINC000498646479   -0.5300
      9 C9        -11.2509    1.3925   55.5052 C.3     1  ZINC000498646479    0.0400
     10 C10       -11.0424    1.7635   54.0331 C.3     1  ZINC000498646479    0.1200
     11 N11        -9.5997    1.9131   53.7888 N.am    1  ZINC000498646479   -0.6100
     12 C12        -9.0009    1.2700   52.7669 C.2     1  ZINC000498646479    0.5200
     13 O13        -9.6527    0.5566   52.0341 O.2     1  ZINC000498646479   -0.5400
     14 C14        -7.5213    1.4375   52.5349 C.3     1  ZINC000498646479   -0.1000
     15 H15        -6.9949    1.3768   53.4874 H       1  ZINC000498646479    0.0900
     16 C16        -7.0223    0.3297   51.6049 C.3     1  ZINC000498646479   -0.1500
     17 C17        -7.2570    2.8005   51.8921 C.3     1  ZINC000498646479   -0.0600
     18 C18        -5.8779    2.8104   51.2846 C.ar    1  ZINC000498646479   -0.1200
     19 C19        -4.7389    2.9750   52.0933 C.ar    1  ZINC000498646479   -0.0200
     20 C20        -4.8258    3.1353   53.4838 C.ar    1  ZINC000498646479   -0.1200
     21 C21        -3.6859    3.2902   54.2132 C.ar    1  ZINC000498646479   -0.1000
     22 C22        -2.4346    3.2923   53.5991 C.ar    1  ZINC000498646479   -0.1200
     23 C23        -2.3126    3.1392   52.2515 C.ar    1  ZINC000498646479   -0.0900
     24 C24        -3.4652    2.9765   51.4667 C.ar    1  ZINC000498646479   -0.1100
     25 C25        -3.4019    2.8139   50.0737 C.ar    1  ZINC000498646479    0.1400
     26 N26        -4.5074    2.6647   49.3818 N.ar    1  ZINC000498646479   -0.4800
     27 C27        -5.7089    2.6544   49.9421 C.ar    1  ZINC000498646479    0.0800
     28 C28        -8.8280    2.7832   54.6892 C.3     1  ZINC000498646479    0.1100
     29 C29        -9.1238    2.3720   56.1354 C.3     1  ZINC000498646479    0.0400
     30 S30       -11.3024   -0.6976   58.0650 S.3     1  ZINC000498646479    0.1300
     31 H31       -10.8335   -4.8582   58.1401 H       1  ZINC000498646479    0.0600
     32 H32       -11.8599   -3.4068   58.0483 H       1  ZINC000498646479    0.0600
     33 H33       -10.4583   -3.5759   56.9642 H       1  ZINC000498646479    0.0600
     34 H34       -10.3359   -3.2970   60.0013 H       1  ZINC000498646479    0.0800
     35 H35        -8.9344   -3.4661   58.9172 H       1  ZINC000498646479    0.0700
     36 H36        -8.0236   -1.1116   59.4589 H       1  ZINC000498646479    0.1400
     37 H37        -8.4609    1.3308   58.8879 H       1  ZINC000498646479    0.1300
     38 H38       -11.9738    2.2103   57.9155 H       1  ZINC000498646479    0.0900
     39 H39       -10.4125    2.9291   58.3781 H       1  ZINC000498646479    0.0500
     40 H40       -10.8324    0.4039   55.6939 H       1  ZINC000498646479    0.0400
     41 H41       -12.3173    1.3856   55.7310 H       1  ZINC000498646479    0.1000
     42 H42       -11.4417    0.9741   53.3964 H       1  ZINC000498646479    0.1000
     43 H43       -11.5496    2.7038   53.8171 H       1  ZINC000498646479    0.0800
     44 H44        -5.9393    0.4004   51.5040 H       1  ZINC000498646479    0.0700
     45 H45        -7.2856   -0.6418   52.0232 H       1  ZINC000498646479    0.0600
     46 H46        -7.4865    0.4413   50.6250 H       1  ZINC000498646479    0.0700
     47 H47        -7.9979    2.9853   51.1143 H       1  ZINC000498646479    0.0900
     48 H48        -7.3251    3.5796   52.6513 H       1  ZINC000498646479    0.0800
     49 H49        -5.7889    3.1363   53.9725 H       1  ZINC000498646479    0.1400
     50 H50        -3.7525    3.4136   55.2841 H       1  ZINC000498646479    0.1300
     51 H51        -1.5474    3.4177   54.2018 H       1  ZINC000498646479    0.1300
     52 H52        -1.3363    3.1429   51.7899 H       1  ZINC000498646479    0.1300
     53 H53        -2.4454    2.8120   49.5722 H       1  ZINC000498646479    0.1600
     54 H54        -6.5791    2.5272   49.3151 H       1  ZINC000498646479    0.1500
     55 H55        -7.7633    2.6679   54.4861 H       1  ZINC000498646479    0.0900
     56 H56        -9.1224    3.8215   54.5362 H       1  ZINC000498646479    0.0800
     57 H57        -8.6474    3.0755   56.8182 H       1  ZINC000498646479    0.0900
     58 H58        -8.7348    1.3698   56.3153 H       1  ZINC000498646479    0.0400
@<TRIPOS>BOND
     1     1     2    1
     2     1    31    1
     3     1    32    1
     4     1    33    1
     5     2     3    1
     6     2    34    1
     7     2    35    1
     8     3    30    1
     9     3     4    2
    10     4     5    1
    11     4    36    1
    12     5     6    2
    13     5    37    1
    14     6     7    1
    15     6    30    1
    16     7     8    1
    17     7    38    1
    18     7    39    1
    19     8    29    1
    20     8     9    1
    21     9    10    1
    22     9    40    1
    23     9    41    1
    24    10    11    1
    25    10    42    1
    26    10    43    1
    27    11    12   am
    28    11    28    1
    29    12    13    2
    30    12    14    1
    31    14    15    1
    32    14    16    1
    33    14    17    1
    34    16    44    1
    35    16    45    1
    36    16    46    1
    37    17    18    1
    38    17    47    1
    39    17    48    1
    40    18    27   ar
    41    18    19   ar
    42    19    24   ar
    43    19    20   ar
    44    20    21   ar
    45    20    49    1
    46    21    22   ar
    47    21    50    1
    48    22    23   ar
    49    22    51    1
    50    23    24   ar
    51    23    52    1
    52    24    25   ar
    53    25    26   ar
    54    25    53    1
    55    26    27   ar
    56    27    54    1
    57    28    29    1
    58    28    55    1
    59    28    56    1
    60    29    57    1
    61    29    58    1
@<TRIPOS>SUBSTRUCTURE
     1 ZINC000498646479        1 TEMP              0 ****  ****    0 ROOT


##########                                Name:    ZINC000826435081
##########                DOCK_Rotatable_Bonds:                   7
##########                         Heavy_Atoms:                  28
##########                    Molecular_Weight:             388.361
##########                DOCK_Rotatable_Bonds:                   7
##########                       Formal_Charge:           0.0099996
##########                     HBond_Acceptors:                  12
##########                        HBond_Donors:                   3
##########                         Heavy_Atoms:                  28
##########                          Grid_Score:          -33.683815
##########                     Grid_vdw_energy:          -32.236343
##########                      Grid_es_energy:           -1.447473
##########           Internal_energy_repulsive:            5.792600

@<TRIPOS>MOLECULE
ZINC000826435081
 45 48 1 0 0
SMALL
USER_CHARGES


@<TRIPOS>ATOM
      1 O1         -9.4289    0.4474   57.1462 O.2     1  ZINC000826435081   -0.5700
      2 C2         -8.9033    1.0821   58.0403 C.2     1  ZINC000826435081    0.7200
      3 N3         -8.0950    2.1193   57.7454 N.am    1  ZINC000826435081   -0.7300
      4 C4         -7.8446    2.4784   56.3474 C.3     1  ZINC000826435081    0.1500
      5 C5         -6.5525    3.2923   56.2534 C.3     1  ZINC000826435081    0.0400
      6 H6         -6.6839    4.2450   56.7665 H       1  ZINC000826435081    0.0800
      7 C7         -6.2133    3.5461   54.7817 C.3     1  ZINC000826435081    0.0300
      8 O8         -4.9483    4.2095   54.6992 O.3     1  ZINC000826435081   -0.3800
      9 C9         -3.8785    3.4804   55.3084 C.3     1  ZINC000826435081    0.0200
     10 C10        -4.2176    3.2266   56.7801 C.3     1  ZINC000826435081    0.0200
     11 O11        -5.4830    2.5640   56.8640 O.3     1  ZINC000826435081   -0.3700
     12 N12        -9.1337    0.7517   59.3266 N.am    1  ZINC000826435081   -0.6400
     13 C13        -9.9741   -0.3267   59.6332 C.2     1  ZINC000826435081    0.3300
     14 N14       -11.2292   -0.4514   59.2710 N.2     1  ZINC000826435081   -0.2800
     15 N15       -11.7120   -1.6657   59.7755 N.pl3   1  ZINC000826435081   -0.3300
     16 C16       -13.0068   -2.1697   59.6091 C.ar    1  ZINC000826435081    0.2200
     17 C17       -13.9163   -2.1109   60.6544 C.ar    1  ZINC000826435081   -0.1300
     18 C18       -15.1948   -2.6088   60.4897 C.ar    1  ZINC000826435081   -0.0500
     19 C19       -15.5764   -3.1688   59.2839 C.ar    1  ZINC000826435081   -0.1500
     20 C20       -14.6808   -3.2346   58.2321 C.ar    1  ZINC000826435081    0.1500
     21 F21       -15.0576   -3.7819   57.0559 F       1  ZINC000826435081   -0.1100
     22 C22       -13.3903   -2.7296   58.3857 C.ar    1  ZINC000826435081   -0.0500
     23 C23       -12.4248   -2.7971   57.2614 C.2     1  ZINC000826435081    0.2100
     24 N24       -11.4046   -3.6247   57.1479 N.2     1  ZINC000826435081   -0.2800
     25 N25       -10.8110   -3.3680   56.0332 N.pl3   1  ZINC000826435081   -0.2300
     26 N26       -11.4222   -2.4047   55.4369 N.2     1  ZINC000826435081   -0.0500
     27 N27       -12.4231   -2.0322   56.1601 N.2     1  ZINC000826435081   -0.2300
     28 C28       -10.7016   -2.2675   60.4547 C.2     1  ZINC000826435081    0.0700
     29 C29        -9.6166   -1.4639   60.3764 C.2     1  ZINC000826435081   -0.2400
     30 H30        -7.6789    2.6282   58.4589 H       1  ZINC000826435081    0.4000
     31 H31        -7.7467    1.5712   55.7511 H       1  ZINC000826435081    0.0800
     32 H32        -8.6767    3.0731   55.9703 H       1  ZINC000826435081    0.0900
     33 H33        -6.1615    2.5957   54.2507 H       1  ZINC000826435081    0.0700
     34 H34        -6.9836    4.1736   54.3333 H       1  ZINC000826435081    0.1100
     35 H35        -3.7483    2.5277   54.7952 H       1  ZINC000826435081    0.0600
     36 H36        -2.9580    4.0603   55.2415 H       1  ZINC000826435081    0.1100
     37 H37        -3.4474    2.5992   57.2285 H       1  ZINC000826435081    0.1100
     38 H38        -4.2695    4.1771   57.3112 H       1  ZINC000826435081    0.0600
     39 H39        -8.7177    1.2605   60.0400 H       1  ZINC000826435081    0.4100
     40 H40       -13.6246   -1.6756   61.5988 H       1  ZINC000826435081    0.1500
     41 H41       -15.8995   -2.5608   61.3067 H       1  ZINC000826435081    0.1500
     42 H42       -16.5773   -3.5563   59.1635 H       1  ZINC000826435081    0.1500
     43 H43       -10.0267   -3.8286   55.6963 H       1  ZINC000826435081    0.4800
     44 H44       -10.7536   -3.2194   60.9622 H       1  ZINC000826435081    0.1800
     45 H45        -8.6488   -1.6585   60.8142 H       1  ZINC000826435081    0.1800
@<TRIPOS>BOND
     1     1     2    2
     2     2     3   am
     3     2    12   am
     4     3     4    1
     5     3    30    1
     6     4     5    1
     7     4    31    1
     8     4    32    1
     9     5     6    1
    10     5    11    1
    11     5     7    1
    12     7     8    1
    13     7    33    1
    14     7    34    1
    15     8     9    1
    16     9    10    1
    17     9    35    1
    18     9    36    1
    19    10    11    1
    20    10    37    1
    21    10    38    1
    22    12    13    1
    23    12    39    1
    24    13    29    1
    25    13    14    2
    26    14    15    1
    27    15    16    1
    28    15    28    1
    29    16    22   ar
    30    16    17   ar
    31    17    18   ar
    32    17    40    1
    33    18    19   ar
    34    18    41    1
    35    19    20   ar
    36    19    42    1
    37    20    21    1
    38    20    22   ar
    39    22    23    1
    40    23    27    1
    41    23    24    2
    42    24    25    1
    43    25    26    1
    44    25    43    1
    45    26    27    2
    46    28    29    2
    47    28    44    1
    48    29    45    1
@<TRIPOS>SUBSTRUCTURE
     1 ZINC000826435081        1 TEMP              0 ****  ****    0 ROOT


##########                                Name:    ZINC000281257088
##########                DOCK_Rotatable_Bonds:                   8
##########                         Heavy_Atoms:                  27
##########                    Molecular_Weight:             395.541
##########                DOCK_Rotatable_Bonds:                   8
##########                       Formal_Charge:          -0.0200005
##########                     HBond_Acceptors:                   7
##########                        HBond_Donors:                   1
##########                         Heavy_Atoms:                  27
##########                          Grid_Score:          -33.607433
##########                     Grid_vdw_energy:          -32.507542
##########                      Grid_es_energy:           -1.099890
##########           Internal_energy_repulsive:           22.337902

@<TRIPOS>MOLECULE
ZINC000281257088
 57 58 1 0 0
SMALL
USER_CHARGES


@<TRIPOS>ATOM
      1 C1        -11.7567   -1.6096   52.1136 C.3     1  ZINC000281257088   -0.0700
      2 C2        -10.6077   -0.7728   52.6139 C.2     1  ZINC000281257088    0.1000
      3 N3         -9.4784   -0.5666   51.9861 N.2     1  ZINC000281257088   -0.3000
      4 N4         -8.6796    0.2632   52.7834 N.pl3   1  ZINC000281257088   -0.3700
      5 C5         -7.3339    0.7395   52.4537 C.3     1  ZINC000281257088    0.1500
      6 C6         -7.3383    1.3496   51.0507 C.3     1  ZINC000281257088   -0.6400
      7 S7         -6.0198    2.5891   50.9262 S.o2    1  ZINC000281257088    2.4300
      8 C8         -4.5770    1.6623   51.5176 C.3     1  ZINC000281257088   -0.6500
      9 O9         -5.8237    2.9054   49.5548 O.2     1  ZINC000281257088   -0.9300
     10 O10        -6.2940    3.6359   51.8473 O.2     1  ZINC000281257088   -0.9300
     11 C11        -9.3685    0.5463   53.9087 C.2     1  ZINC000281257088    0.0900
     12 C12        -8.8915    1.4080   55.0493 C.3     1  ZINC000281257088   -0.1000
     13 C13       -10.5665   -0.0774   53.8268 C.2     1  ZINC000281257088   -0.2300
     14 C14       -11.6597   -0.0372   54.8633 C.3     1  ZINC000281257088    0.1400
     15 N15       -11.5740   -1.2331   55.7120 N.3     1  ZINC000281257088   -0.6700
     16 C16       -12.5251   -1.1554   56.8288 C.3     1  ZINC000281257088    0.1400
     17 H17       -13.1124   -0.2412   56.7429 H       1  ZINC000281257088    0.0500
     18 C18       -11.7693   -1.1462   58.1326 C.ar    1  ZINC000281257088   -0.0800
     19 C19       -12.2572   -0.4283   59.2086 C.ar    1  ZINC000281257088   -0.0600
     20 C20       -11.5650   -0.4191   60.4048 C.ar    1  ZINC000281257088   -0.1600
     21 C21       -10.3828   -1.1297   60.5254 C.ar    1  ZINC000281257088    0.1000
     22 F22        -9.7056   -1.1219   61.6943 F       1  ZINC000281257088   -0.1400
     23 C23        -9.8955   -1.8488   59.4472 C.ar    1  ZINC000281257088   -0.1600
     24 C24       -10.5918   -1.8603   58.2536 C.ar    1  ZINC000281257088   -0.0900
     25 C25       -13.4586   -2.3670   56.7891 C.3     1  ZINC000281257088   -0.0600
     26 C26       -12.6400   -3.6332   56.5296 C.3     1  ZINC000281257088   -0.1400
     27 C27       -14.1852   -2.4951   58.1294 C.3     1  ZINC000281257088   -0.1400
     28 C28       -14.4841   -2.1841   55.6684 C.3     1  ZINC000281257088   -0.1500
     29 H29       -12.4353   -0.9849   51.5328 H       1  ZINC000281257088    0.0800
     30 H30       -11.3741   -2.4132   51.4843 H       1  ZINC000281257088    0.0700
     31 H31       -12.2919   -2.0362   52.9620 H       1  ZINC000281257088    0.0800
     32 H32        -7.0285    1.4951   53.1775 H       1  ZINC000281257088    0.1100
     33 H33        -6.6350   -0.0964   52.4843 H       1  ZINC000281257088    0.1100
     34 H34        -7.1703    0.5651   50.3129 H       1  ZINC000281257088    0.1400
     35 H35        -8.3017    1.8238   50.8637 H       1  ZINC000281257088    0.1400
     36 H36        -4.4127    0.7971   50.8753 H       1  ZINC000281257088    0.1300
     37 H37        -3.6972    2.3053   51.4933 H       1  ZINC000281257088    0.1300
     38 H38        -4.7542    1.3275   52.5397 H       1  ZINC000281257088    0.1300
     39 H39        -9.1807    2.4433   54.8683 H       1  ZINC000281257088    0.0800
     40 H40        -9.3428    1.0621   55.9793 H       1  ZINC000281257088    0.0900
     41 H41        -7.8062    1.3419   55.1255 H       1  ZINC000281257088    0.0700
     42 H42       -11.5436    0.8545   55.4794 H       1  ZINC000281257088    0.0800
     43 H43       -12.6300   -0.0123   54.3674 H       1  ZINC000281257088    0.0300
     44 H44       -11.7199   -2.0720   55.1706 H       1  ZINC000281257088    0.3400
     45 H45       -13.1793    0.1259   59.1143 H       1  ZINC000281257088    0.1400
     46 H46       -11.9460    0.1424   61.2450 H       1  ZINC000281257088    0.1300
     47 H47        -8.9733   -2.4031   59.5401 H       1  ZINC000281257088    0.1300
     48 H48       -10.2121   -2.4214   57.4125 H       1  ZINC000281257088    0.1300
     49 H49       -11.9094   -3.7635   57.3279 H       1  ZINC000281257088    0.0600
     50 H50       -13.3050   -4.4964   56.5013 H       1  ZINC000281257088    0.0500
     51 H51       -12.1223   -3.5419   55.5747 H       1  ZINC000281257088    0.0600
     52 H52       -14.7684   -1.5930   58.3143 H       1  ZINC000281257088    0.0500
     53 H53       -14.8503   -3.3583   58.1011 H       1  ZINC000281257088    0.0600
     54 H54       -13.4546   -2.6254   58.9277 H       1  ZINC000281257088    0.0600
     55 H55       -13.9723   -2.1708   54.7062 H       1  ZINC000281257088    0.0500
     56 H56       -15.1965   -3.0088   55.6897 H       1  ZINC000281257088    0.0600
     57 H57       -15.0141   -1.2423   55.8111 H       1  ZINC000281257088    0.0600
@<TRIPOS>BOND
     1     1     2    1
     2     1    29    1
     3     1    30    1
     4     1    31    1
     5     2    13    1
     6     2     3    2
     7     3     4    1
     8     4     5    1
     9     4    11    1
    10     5     6    1
    11     5    32    1
    12     5    33    1
    13     6     7    1
    14     6    34    1
    15     6    35    1
    16     7     8    1
    17     7     9    2
    18     7    10    2
    19     8    36    1
    20     8    37    1
    21     8    38    1
    22    11    12    1
    23    11    13    2
    24    12    39    1
    25    12    40    1
    26    12    41    1
    27    13    14    1
    28    14    15    1
    29    14    42    1
    30    14    43    1
    31    15    16    1
    32    15    44    1
    33    16    17    1
    34    16    18    1
    35    16    25    1
    36    18    24   ar
    37    18    19   ar
    38    19    20   ar
    39    19    45    1
    40    20    21   ar
    41    20    46    1
    42    21    22    1
    43    21    23   ar
    44    23    24   ar
    45    23    47    1
    46    24    48    1
    47    25    26    1
    48    25    27    1
    49    25    28    1
    50    26    49    1
    51    26    50    1
    52    26    51    1
    53    27    52    1
    54    27    53    1
    55    27    54    1
    56    28    55    1
    57    28    56    1
    58    28    57    1
@<TRIPOS>SUBSTRUCTURE
     1 ZINC000281257088        1 TEMP              0 ****  ****    0 ROOT


##########                                Name:    ZINC001207290212
##########                DOCK_Rotatable_Bonds:                   8
##########                         Heavy_Atoms:                  23
##########                    Molecular_Weight:             344.435
##########                DOCK_Rotatable_Bonds:                   8
##########                       Formal_Charge:               -0.03
##########                     HBond_Acceptors:                   9
##########                        HBond_Donors:                   2
##########                         Heavy_Atoms:                  23
##########                          Grid_Score:          -33.603607
##########                     Grid_vdw_energy:          -32.986130
##########                      Grid_es_energy:           -0.617477
##########           Internal_energy_repulsive:            5.515691

@<TRIPOS>MOLECULE
ZINC001207290212
 47 48 1 0 0
SMALL
USER_CHARGES


@<TRIPOS>ATOM
      1 C1        -10.5297    0.4691   62.7411 C.3     1  ZINC001207290212   -0.1500
      2 C2         -9.3199   -0.0791   61.9817 C.3     1  ZINC001207290212   -0.6300
      3 S3         -9.5925    0.1029   60.1976 S.o2    1  ZINC001207290212    2.6100
      4 O4         -9.9626    1.4384   59.8834 O.2     1  ZINC001207290212   -0.9500
      5 O5         -8.5739   -0.5662   59.4666 O.2     1  ZINC001207290212   -0.9500
      6 N6        -10.9596   -0.7815   59.8961 N.am    1  ZINC001207290212   -1.1100
      7 C7        -10.9842   -2.2160   60.1922 C.3     1  ZINC001207290212    0.0900
      8 C8        -11.1496   -2.9908   58.9102 C.2     1  ZINC001207290212    0.5100
      9 O9        -10.4933   -3.9925   58.7181 O.2     1  ZINC001207290212   -0.5300
     10 N10       -12.0267   -2.5706   57.9772 N.am    1  ZINC001207290212   -0.7200
     11 C11       -12.1887   -3.3247   56.7318 C.3     1  ZINC001207290212    0.1400
     12 H12       -11.9611   -4.3780   56.8957 H       1  ZINC001207290212    0.1000
     13 C13       -11.2774   -2.7457   55.6338 C.3     1  ZINC001207290212    0.0200
     14 N14       -12.1588   -2.2577   54.5510 N.3     1  ZINC001207290212   -0.5100
     15 C15       -11.5302   -2.4436   53.2364 C.3     1  ZINC001207290212    0.1300
     16 C16       -10.6889   -1.2376   52.9068 C.2     1  ZINC001207290212    0.0000
     17 C17       -11.0577    0.0470   53.0414 C.2     1  ZINC001207290212   -0.0700
     18 O18       -10.0175    0.8026   52.6380 O.3     1  ZINC001207290212   -0.2000
     19 C19        -9.0322   -0.0247   52.2643 C.2     1  ZINC001207290212    0.1900
     20 C20        -7.6821    0.3968   51.7442 C.3     1  ZINC001207290212   -0.0600
     21 N21        -9.4314   -1.2534   52.4305 N.2     1  ZINC001207290212   -0.4700
     22 C22       -13.4104   -3.0503   54.6595 C.3     1  ZINC001207290212    0.0400
     23 C23       -13.6281   -3.1646   56.1909 C.3     1  ZINC001207290212   -0.1000
     24 H24       -14.0881   -2.2579   56.5839 H       1  ZINC001207290212    0.0900
     25 C25       -14.4797   -4.3906   56.5266 C.3     1  ZINC001207290212   -0.1400
     26 H26       -10.6629    1.5237   62.4997 H       1  ZINC001207290212    0.0700
     27 H27       -11.4222   -0.0855   62.4515 H       1  ZINC001207290212    0.0700
     28 H28       -10.3659    0.3597   63.8131 H       1  ZINC001207290212    0.0800
     29 H29        -8.4273    0.4755   62.2714 H       1  ZINC001207290212    0.1300
     30 H30        -9.1867   -1.1337   62.2232 H       1  ZINC001207290212    0.1300
     31 H31       -11.7443   -0.3497   59.5234 H       1  ZINC001207290212    0.4300
     32 H32       -10.0491   -2.5039   60.6726 H       1  ZINC001207290212    0.1000
     33 H33       -11.8180   -2.4351   60.8593 H       1  ZINC001207290212    0.1100
     34 H34       -12.5506   -1.7687   58.1303 H       1  ZINC001207290212    0.4100
     35 H35       -10.6907   -1.9195   56.0357 H       1  ZINC001207290212    0.0800
     36 H36       -10.6158   -3.5232   55.2519 H       1  ZINC001207290212    0.0500
     37 H37       -10.8991   -3.3321   53.2578 H       1  ZINC001207290212    0.0600
     38 H38       -12.3035   -2.5655   52.4779 H       1  ZINC001207290212    0.1000
     39 H39       -12.0092    0.4067   53.4043 H       1  ZINC001207290212    0.2100
     40 H40        -7.6268    1.4851   51.7169 H       1  ZINC001207290212    0.0900
     41 H41        -6.9028    0.0098   52.4007 H       1  ZINC001207290212    0.1000
     42 H42        -7.5401    0.0004   50.7387 H       1  ZINC001207290212    0.1000
     43 H43       -14.2413   -2.5232   54.1908 H       1  ZINC001207290212    0.0900
     44 H44       -13.2802   -4.0374   54.2159 H       1  ZINC001207290212    0.0500
     45 H45       -13.9879   -5.2883   56.1518 H       1  ZINC001207290212    0.0600
     46 H46       -14.5982   -4.4658   57.6075 H       1  ZINC001207290212    0.0600
     47 H47       -15.4596   -4.2912   56.0597 H       1  ZINC001207290212    0.0600
@<TRIPOS>BOND
     1     1     2    1
     2     1    26    1
     3     1    27    1
     4     1    28    1
     5     2     3    1
     6     2    29    1
     7     2    30    1
     8     3     4    2
     9     3     5    2
    10     3     6   am
    11     6     7    1
    12     6    31    1
    13     7     8    1
    14     7    32    1
    15     7    33    1
    16     8     9    2
    17     8    10   am
    18    10    11    1
    19    10    34    1
    20    11    12    1
    21    11    23    1
    22    11    13    1
    23    13    14    1
    24    13    35    1
    25    13    36    1
    26    14    15    1
    27    14    22    1
    28    15    16    1
    29    15    37    1
    30    15    38    1
    31    16    21    1
    32    16    17    2
    33    17    18    1
    34    17    39    1
    35    18    19    1
    36    19    20    1
    37    19    21    2
    38    20    40    1
    39    20    41    1
    40    20    42    1
    41    22    23    1
    42    22    43    1
    43    22    44    1
    44    23    24    1
    45    23    25    1
    46    25    45    1
    47    25    46    1
    48    25    47    1
@<TRIPOS>SUBSTRUCTURE
     1 ZINC001207290212        1 TEMP              0 ****  ****    0 ROOT


##########                                Name:    ZINC000805177769
##########                DOCK_Rotatable_Bonds:                  10
##########                         Heavy_Atoms:                  30
##########                    Molecular_Weight:             417.548
##########                DOCK_Rotatable_Bonds:                  10
##########                       Formal_Charge:           0.0199995
##########                     HBond_Acceptors:                   7
##########                        HBond_Donors:                   1
##########                         Heavy_Atoms:                  30
##########                          Grid_Score:          -33.593407
##########                     Grid_vdw_energy:          -33.723961
##########                      Grid_es_energy:            0.130554
##########           Internal_energy_repulsive:           51.917191

@<TRIPOS>MOLECULE
ZINC000805177769
 65 66 1 0 0
SMALL
USER_CHARGES


@<TRIPOS>ATOM
      1 C1         -9.5050   -0.8727   60.5126 C.3     1  ZINC000805177769   -0.1200
      2 C2        -10.5186   -1.6264   59.6906 C.ar    1  ZINC000805177769   -0.0800
      3 C3        -10.1001   -2.5815   58.7835 C.ar    1  ZINC000805177769   -0.1200
      4 C4        -11.0301   -3.2730   58.0293 C.ar    1  ZINC000805177769   -0.1100
      5 C5        -12.3781   -3.0094   58.1828 C.ar    1  ZINC000805177769   -0.0900
      6 C6        -13.3916   -3.7627   57.3605 C.3     1  ZINC000805177769   -0.0900
      7 C7        -13.7851   -2.9241   56.1427 C.3     1  ZINC000805177769    0.1500
      8 H8        -13.9403   -1.8896   56.4488 H       1  ZINC000805177769    0.1000
      9 C9        -15.0778   -3.4768   55.5391 C.3     1  ZINC000805177769   -0.1700
     10 N10       -12.7155   -2.9825   55.1433 N.am    1  ZINC000805177769   -0.6900
     11 C11       -12.6160   -2.0194   54.2057 C.2     1  ZINC000805177769    0.5100
     12 O12       -13.4132   -1.1048   54.1885 O.2     1  ZINC000805177769   -0.5100
     13 C13       -11.5238   -2.0781   53.1874 C.2     1  ZINC000805177769    0.5200
     14 O14       -11.5012   -2.9772   52.3729 O.2     1  ZINC000805177769   -0.5200
     15 N15       -10.5637   -1.1322   53.1737 N.am    1  ZINC000805177769   -0.5900
     16 C16        -9.4365   -1.0690   52.2320 C.3     1  ZINC000805177769    0.1100
     17 C17        -8.6194    0.1933   52.5794 C.3     1  ZINC000805177769   -0.1500
     18 C18        -9.6485    1.0767   53.3333 C.3     1  ZINC000805177769    0.1500
     19 H19       -10.2778    1.6268   52.6337 H       1  ZINC000805177769    0.1200
     20 N20        -8.9764    1.9901   54.2608 N.am    1  ZINC000805177769   -0.5900
     21 C21        -9.2917    1.9449   55.6908 C.3     1  ZINC000805177769    0.0800
     22 C22        -8.0684    2.8722   53.7986 C.2     1  ZINC000805177769    0.6600
     23 O23        -7.5122    3.6310   54.5677 O.2     1  ZINC000805177769   -0.5600
     24 O24        -7.7776    2.9129   52.4846 O.3     1  ZINC000805177769   -0.3600
     25 C25        -6.7899    3.8880   52.0579 C.3     1  ZINC000805177769    0.1400
     26 C26        -5.4614    3.6112   52.7646 C.3     1  ZINC000805177769   -0.1800
     27 C27        -6.5932    3.7858   50.5441 C.3     1  ZINC000805177769   -0.1400
     28 C28        -7.2744    5.2945   52.4155 C.3     1  ZINC000805177769   -0.1800
     29 C29       -10.4737    0.0140   54.0965 C.3     1  ZINC000805177769    0.0900
     30 C30       -12.7968   -2.0550   59.0913 C.ar    1  ZINC000805177769   -0.0800
     31 C31       -14.2666   -1.7679   59.2590 C.3     1  ZINC000805177769   -0.1200
     32 C32       -11.8674   -1.3664   59.8480 C.ar    1  ZINC000805177769   -0.1200
     33 H33        -9.3149   -1.4132   61.4398 H       1  ZINC000805177769    0.0700
     34 H34        -8.5766   -0.7801   59.9491 H       1  ZINC000805177769    0.0700
     35 H35        -9.8905    0.1204   60.7435 H       1  ZINC000805177769    0.0700
     36 H36        -9.0468   -2.7874   58.6635 H       1  ZINC000805177769    0.1200
     37 H37       -10.7030   -4.0188   57.3199 H       1  ZINC000805177769    0.1200
     38 H38       -12.9601   -4.7066   57.0275 H       1  ZINC000805177769    0.0800
     39 H39       -14.2759   -3.9611   57.9662 H       1  ZINC000805177769    0.0900
     40 H40       -14.9226   -4.5114   55.2331 H       1  ZINC000805177769    0.0600
     41 H41       -15.8736   -3.4333   56.2827 H       1  ZINC000805177769    0.0700
     42 H42       -15.3582   -2.8794   54.6716 H       1  ZINC000805177769    0.0600
     43 H43       -12.0789   -3.7143   55.1564 H       1  ZINC000805177769    0.4100
     44 H44        -8.8124   -1.9560   52.3408 H       1  ZINC000805177769    0.0900
     45 H45        -9.8103   -0.9991   51.2105 H       1  ZINC000805177769    0.0900
     46 H46        -7.7789   -0.0573   53.2266 H       1  ZINC000805177769    0.0900
     47 H47        -8.2747    0.6911   51.6731 H       1  ZINC000805177769    0.0900
     48 H48        -8.6244    1.2407   56.1878 H       1  ZINC000805177769    0.0600
     49 H49        -9.1606    2.9367   56.1233 H       1  ZINC000805177769    0.0800
     50 H50       -10.3245    1.6234   55.8252 H       1  ZINC000805177769    0.0800
     51 H51        -5.1163    2.6091   52.5100 H       1  ZINC000805177769    0.0600
     52 H52        -4.7201    4.3432   52.4444 H       1  ZINC000805177769    0.0700
     53 H53        -5.6015    3.6840   53.8432 H       1  ZINC000805177769    0.0900
     54 H54        -7.5396    3.9830   50.0406 H       1  ZINC000805177769    0.0700
     55 H55        -5.8519    4.5178   50.2238 H       1  ZINC000805177769    0.0800
     56 H56        -6.2481    2.7837   50.2894 H       1  ZINC000805177769    0.0700
     57 H57        -7.4144    5.3674   53.4939 H       1  ZINC000805177769    0.0900
     58 H58        -6.5330    6.0265   52.0951 H       1  ZINC000805177769    0.0700
     59 H59        -8.2208    5.4917   51.9120 H       1  ZINC000805177769    0.0600
     60 H60       -11.4670    0.3987   54.3270 H       1  ZINC000805177769    0.0900
     61 H61        -9.9588   -0.2815   55.0107 H       1  ZINC000805177769    0.0800
     62 H62       -14.6783   -2.4192   60.0301 H       1  ZINC000805177769    0.0700
     63 H63       -14.4024   -0.7269   59.5523 H       1  ZINC000805177769    0.0700
     64 H64       -14.7824   -1.9500   58.3162 H       1  ZINC000805177769    0.0700
     65 H65       -12.1944   -0.6208   60.5576 H       1  ZINC000805177769    0.1200
@<TRIPOS>BOND
     1     1     2    1
     2     1    33    1
     3     1    34    1
     4     1    35    1
     5     2    32   ar
     6     2     3   ar
     7     3     4   ar
     8     3    36    1
     9     4     5   ar
    10     4    37    1
    11     5     6    1
    12     5    30   ar
    13     6     7    1
    14     6    38    1
    15     6    39    1
    16     7     8    1
    17     7     9    1
    18     7    10    1
    19     9    40    1
    20     9    41    1
    21     9    42    1
    22    10    11   am
    23    10    43    1
    24    11    12    2
    25    11    13    1
    26    13    14    2
    27    13    15   am
    28    15    29    1
    29    15    16    1
    30    16    17    1
    31    16    44    1
    32    16    45    1
    33    17    18    1
    34    17    46    1
    35    17    47    1
    36    18    19    1
    37    18    20    1
    38    18    29    1
    39    20    21    1
    40    20    22   am
    41    21    48    1
    42    21    49    1
    43    21    50    1
    44    22    23    2
    45    22    24    1
    46    24    25    1
    47    25    26    1
    48    25    27    1
    49    25    28    1
    50    26    51    1
    51    26    52    1
    52    26    53    1
    53    27    54    1
    54    27    55    1
    55    27    56    1
    56    28    57    1
    57    28    58    1
    58    28    59    1
    59    29    60    1
    60    29    61    1
    61    30    31    1
    62    30    32   ar
    63    31    62    1
    64    31    63    1
    65    31    64    1
    66    32    65    1
@<TRIPOS>SUBSTRUCTURE
     1 ZINC000805177769        1 TEMP              0 ****  ****    0 ROOT


##########                                Name:    ZINC001289445798
##########                DOCK_Rotatable_Bonds:                  10
##########                         Heavy_Atoms:                  25
##########                    Molecular_Weight:             352.434
##########                DOCK_Rotatable_Bonds:                  10
##########                       Formal_Charge:          0.00999932
##########                     HBond_Acceptors:                   8
##########                        HBond_Donors:                   2
##########                         Heavy_Atoms:                  25
##########                          Grid_Score:          -33.569347
##########                     Grid_vdw_energy:          -30.881657
##########                      Grid_es_energy:           -2.687690
##########           Internal_energy_repulsive:           14.862603

@<TRIPOS>MOLECULE
ZINC001289445798
 53 54 1 0 0
SMALL
USER_CHARGES


@<TRIPOS>ATOM
      1 C1         -7.8881    3.5516   55.6831 C.3     1  ZINC001289445798   -0.1500
      2 C2         -8.1004    2.1482   55.1120 C.3     1  ZINC001289445798    0.0600
      3 O3         -8.6191    2.2477   53.7842 O.3     1  ZINC001289445798   -0.3700
      4 C4         -7.6459    2.0249   52.7619 C.3     1  ZINC001289445798    0.1100
      5 H5         -6.7080    1.7057   53.2164 H       1  ZINC001289445798    0.0700
      6 C6         -7.4193    3.3217   51.9821 C.3     1  ZINC001289445798   -0.1400
      7 C7         -6.1994    3.1764   51.1093 C.2     1  ZINC001289445798    0.5400
      8 O8         -6.3233    2.8964   49.9357 O.2     1  ZINC001289445798   -0.5200
      9 N9         -4.9708    3.3577   51.6327 N.am    1  ZINC001289445798   -0.6200
     10 C10        -4.6771    3.6912   53.0342 C.3     1  ZINC001289445798    0.1000
     11 C11        -3.1425    3.7718   53.1742 C.3     1  ZINC001289445798    0.1400
     12 H12        -2.8009    4.8032   53.0870 H       1  ZINC001289445798    0.1200
     13 N13        -2.7067    3.1891   54.4456 N.am    1  ZINC001289445798   -0.7200
     14 C14        -3.0520    3.7755   55.6091 C.2     1  ZINC001289445798    0.6000
     15 O15        -3.7241    4.7891   55.6034 O.2     1  ZINC001289445798   -0.5100
     16 C16        -2.6157    3.1892   56.8865 C.2     1  ZINC001289445798   -0.0500
     17 C17        -2.6918    3.7746   58.1383 C.2     1  ZINC001289445798   -0.1400
     18 C18        -2.1574    2.8328   59.0203 C.2     1  ZINC001289445798    0.0000
     19 N19        -1.8019    1.7850   58.3217 N.2     1  ZINC001289445798   -0.2700
     20 N20        -2.0599    1.9557   57.0751 N.pl3   1  ZINC001289445798   -0.3800
     21 C21        -2.6393    2.9238   51.9762 C.3     1  ZINC001289445798    0.0700
     22 H22        -2.6466    1.8613   52.2192 H       1  ZINC001289445798    0.0900
     23 O23        -1.3370    3.3429   51.5631 O.3     1  ZINC001289445798   -0.3700
     24 C24        -0.4170    2.2681   51.3623 C.3     1  ZINC001289445798    0.0300
     25 C25        -3.6984    3.2480   50.8964 C.3     1  ZINC001289445798    0.0800
     26 C26        -8.1467    0.9377   51.8090 C.3     1  ZINC001289445798   -0.1100
     27 C27        -7.1243   -0.1990   51.7494 C.3     1  ZINC001289445798   -0.1500
     28 C28        -9.4849    0.3941   52.3138 C.3     1  ZINC001289445798   -0.1500
     29 H29        -8.8394    4.0832   55.7036 H       1  ZINC001289445798    0.0600
     30 H30        -7.4925    3.4757   56.6960 H       1  ZINC001289445798    0.0700
     31 H31        -7.1813    4.0957   55.0568 H       1  ZINC001289445798    0.0600
     32 H32        -7.1491    1.6165   55.0915 H       1  ZINC001289445798    0.0500
     33 H33        -8.8073    1.6041   55.7385 H       1  ZINC001289445798    0.0500
     34 H34        -8.2896    3.5276   51.3588 H       1  ZINC001289445798    0.1100
     35 H35        -7.2701    4.1446   52.6811 H       1  ZINC001289445798    0.1000
     36 H36        -5.1236    4.6528   53.2877 H       1  ZINC001289445798    0.0800
     37 H37        -5.0690    2.9139   53.6902 H       1  ZINC001289445798    0.0800
     38 H38        -2.1696    2.3815   54.4503 H       1  ZINC001289445798    0.4000
     39 H39        -3.0817    4.7521   58.3813 H       1  ZINC001289445798    0.1700
     40 H40        -2.0552    2.9489   60.0892 H       1  ZINC001289445798    0.1900
     41 H41        -1.8810    1.3100   56.3736 H       1  ZINC001289445798    0.4400
     42 H42         0.5474    2.6689   51.0503 H       1  ZINC001289445798    0.0900
     43 H43        -0.2963    1.7145   52.2935 H       1  ZINC001289445798    0.0400
     44 H44        -0.8003    1.6012   50.5900 H       1  ZINC001289445798    0.0500
     45 H45        -3.7493    2.4444   50.1617 H       1  ZINC001289445798    0.0900
     46 H46        -3.4656    4.1947   50.4088 H       1  ZINC001289445798    0.0900
     47 H47        -8.2788    1.3602   50.8128 H       1  ZINC001289445798    0.0800
     48 H48        -6.9924   -0.6215   52.7455 H       1  ZINC001289445798    0.0600
     49 H49        -7.4813   -0.9736   51.0706 H       1  ZINC001289445798    0.0600
     50 H50        -6.1710    0.1882   51.3898 H       1  ZINC001289445798    0.0600
     51 H51       -10.2385    1.1800   52.2636 H       1  ZINC001289445798    0.0600
     52 H52        -9.7939   -0.4458   51.6915 H       1  ZINC001289445798    0.0600
     53 H53        -9.3757    0.0608   53.3458 H       1  ZINC001289445798    0.0500
@<TRIPOS>BOND
     1     1     2    1
     2     1    29    1
     3     1    30    1
     4     1    31    1
     5     2     3    1
     6     2    32    1
     7     2    33    1
     8     3     4    1
     9     4     5    1
    10     4     6    1
    11     4    26    1
    12     6     7    1
    13     6    34    1
    14     6    35    1
    15     7     8    2
    16     7     9   am
    17     9    25    1
    18     9    10    1
    19    10    11    1
    20    10    36    1
    21    10    37    1
    22    11    12    1
    23    11    13    1
    24    11    21    1
    25    13    14   am
    26    13    38    1
    27    14    15    2
    28    14    16    1
    29    16    20    1
    30    16    17    2
    31    17    18    1
    32    17    39    1
    33    18    19    2
    34    18    40    1
    35    19    20    1
    36    20    41    1
    37    21    22    1
    38    21    23    1
    39    21    25    1
    40    23    24    1
    41    24    42    1
    42    24    43    1
    43    24    44    1
    44    25    45    1
    45    25    46    1
    46    26    27    1
    47    26    28    1
    48    26    47    1
    49    27    48    1
    50    27    49    1
    51    27    50    1
    52    28    51    1
    53    28    52    1
    54    28    53    1
@<TRIPOS>SUBSTRUCTURE
     1 ZINC001289445798        1 TEMP              0 ****  ****    0 ROOT


##########                                Name:    ZINC000429196987
##########                DOCK_Rotatable_Bonds:                   7
##########                         Heavy_Atoms:                  28
##########                    Molecular_Weight:             403.505
##########                DOCK_Rotatable_Bonds:                   7
##########                       Formal_Charge:          -0.0399997
##########                     HBond_Acceptors:                   9
##########                        HBond_Donors:                   1
##########                         Heavy_Atoms:                  28
##########                          Grid_Score:          -33.539150
##########                     Grid_vdw_energy:          -34.072536
##########                      Grid_es_energy:            0.533388
##########           Internal_energy_repulsive:           11.250895

@<TRIPOS>MOLECULE
ZINC000429196987
 53 55 1 0 0
SMALL
USER_CHARGES


@<TRIPOS>ATOM
      1 C1        -11.4378   -3.1500   54.5706 C.3     1  ZINC000429196987    0.0800
      2 N2        -11.5769   -1.6915   54.5623 N.am    1  ZINC000429196987   -0.6300
      3 C3        -11.8251   -0.9866   53.3023 C.3     1  ZINC000429196987    0.1600
      4 C4        -10.5788   -0.2493   52.8852 C.ar    1  ZINC000429196987   -0.0600
      5 C5        -10.5381    1.1309   52.9495 C.ar    1  ZINC000429196987   -0.1300
      6 C6         -9.3948    1.8072   52.5668 C.ar    1  ZINC000429196987   -0.0300
      7 C7         -8.2921    1.1033   52.1203 C.ar    1  ZINC000429196987   -0.6600
      8 S8         -6.8350    1.9654   51.6321 S.o2    1  ZINC000429196987    2.5000
      9 C9         -7.3057    2.8202   50.1029 C.3     1  ZINC000429196987   -0.6500
     10 O10        -6.6142    2.9010   52.6786 O.2     1  ZINC000429196987   -0.9400
     11 O11        -5.8939    0.9364   51.3587 O.2     1  ZINC000429196987   -0.9400
     12 C12        -8.3324   -0.2770   52.0573 C.ar    1  ZINC000429196987   -0.0300
     13 C13        -9.4743   -0.9536   52.4435 C.ar    1  ZINC000429196987   -0.1100
     14 C14       -11.4766   -0.9984   55.7138 C.2     1  ZINC000429196987    0.7100
     15 O15       -11.5935    0.2117   55.7070 O.2     1  ZINC000429196987   -0.5800
     16 N16       -11.2467   -1.6468   56.8727 N.am    1  ZINC000429196987   -0.7400
     17 C17       -11.1358   -0.8932   58.1242 C.3     1  ZINC000429196987    0.1600
     18 C18       -11.7797   -1.6917   59.2611 C.3     1  ZINC000429196987   -0.1300
     19 C19       -11.6071   -0.9277   60.5759 C.3     1  ZINC000429196987    0.0700
     20 N20       -10.1772   -0.7274   60.8430 N.3     1  ZINC000429196987   -0.4700
     21 C21        -9.9796   -0.1523   62.0935 C.ar    1  ZINC000429196987    0.2500
     22 C22        -8.8435   -0.4674   62.8380 C.ar    1  ZINC000429196987   -0.1300
     23 C23        -8.6935    0.1326   64.0783 C.ar    1  ZINC000429196987   -0.1000
     24 C24        -9.6821    1.0094   64.5027 C.ar    1  ZINC000429196987    0.0200
     25 N25       -10.7247    1.2501   63.7329 N.ar    1  ZINC000429196987   -0.2200
     26 N26       -10.8674    0.7022   62.5810 N.ar    1  ZINC000429196987   -0.2800
     27 C27        -9.5476    0.0773   59.7883 C.3     1  ZINC000429196987    0.0600
     28 C28        -9.6586   -0.6567   58.4500 C.3     1  ZINC000429196987   -0.1200
     29 H29       -10.3906   -3.4159   54.4269 H       1  ZINC000429196987    0.0600
     30 H30       -11.7844   -3.5425   55.5267 H       1  ZINC000429196987    0.0700
     31 H31       -12.0350   -3.5765   53.7647 H       1  ZINC000429196987    0.0800
     32 H32       -12.0968   -1.7068   52.5305 H       1  ZINC000429196987    0.1000
     33 H33       -12.6397   -0.2753   53.4382 H       1  ZINC000429196987    0.0900
     34 H34       -11.3996    1.6809   53.2984 H       1  ZINC000429196987    0.1300
     35 H35        -9.3631    2.8856   52.6165 H       1  ZINC000429196987    0.1400
     36 H36        -8.1322    3.5010   50.3069 H       1  ZINC000429196987    0.1300
     37 H37        -6.4537    3.3859   49.7259 H       1  ZINC000429196987    0.1300
     38 H38        -7.6140    2.0875   49.3572 H       1  ZINC000429196987    0.1300
     39 H39        -7.4707   -0.8271   51.7087 H       1  ZINC000429196987    0.1400
     40 H40        -9.5057   -2.0319   52.3942 H       1  ZINC000429196987    0.1400
     41 H41       -11.1546   -2.6124   56.8783 H       1  ZINC000429196987    0.4000
     42 H42       -11.6436    0.0655   58.0182 H       1  ZINC000429196987    0.0900
     43 H43       -12.8415   -1.8266   59.0552 H       1  ZINC000429196987    0.0800
     44 H44       -11.2972   -2.6658   59.3403 H       1  ZINC000429196987    0.0700
     45 H45       -12.1017    0.0407   60.5007 H       1  ZINC000429196987    0.0600
     46 H46       -12.0519   -1.5004   61.3897 H       1  ZINC000429196987    0.0900
     47 H47        -8.1039   -1.1578   62.4602 H       1  ZINC000429196987    0.1500
     48 H48        -7.8329   -0.0761   64.6964 H       1  ZINC000429196987    0.1500
     49 H49        -9.5972    1.4943   65.4640 H       1  ZINC000429196987    0.1700
     50 H50       -10.0517    1.0410   59.7170 H       1  ZINC000429196987    0.0500
     51 H51        -8.4963    0.2345   60.0301 H       1  ZINC000429196987    0.0900
     52 H52        -9.1427   -1.6146   58.5163 H       1  ZINC000429196987    0.0800
     53 H53        -9.2049   -0.0521   57.6646 H       1  ZINC000429196987    0.0800
@<TRIPOS>BOND
     1     1     2    1
     2     1    29    1
     3     1    30    1
     4     1    31    1
     5     2     3    1
     6     2    14   am
     7     3     4    1
     8     3    32    1
     9     3    33    1
    10     4    13   ar
    11     4     5   ar
    12     5     6   ar
    13     5    34    1
    14     6     7   ar
    15     6    35    1
    16     7     8    1
    17     7    12   ar
    18     8     9    1
    19     8    10    2
    20     8    11    2
    21     9    36    1
    22     9    37    1
    23     9    38    1
    24    12    13   ar
    25    12    39    1
    26    13    40    1
    27    14    15    2
    28    14    16   am
    29    16    17    1
    30    16    41    1
    31    17    28    1
    32    17    18    1
    33    17    42    1
    34    18    19    1
    35    18    43    1
    36    18    44    1
    37    19    20    1
    38    19    45    1
    39    19    46    1
    40    20    21    1
    41    20    27    1
    42    21    26   ar
    43    21    22   ar
    44    22    23   ar
    45    22    47    1
    46    23    24   ar
    47    23    48    1
    48    24    25   ar
    49    24    49    1
    50    25    26   ar
    51    27    28    1
    52    27    50    1
    53    27    51    1
    54    28    52    1
    55    28    53    1
@<TRIPOS>SUBSTRUCTURE
     1 ZINC000429196987        1 TEMP              0 ****  ****    0 ROOT


##########                                Name:    ZINC001105793963
##########                DOCK_Rotatable_Bonds:                   9
##########                         Heavy_Atoms:                  24
##########                    Molecular_Weight:             337.422
##########                DOCK_Rotatable_Bonds:                   9
##########                       Formal_Charge:          -0.0100003
##########                     HBond_Acceptors:                   8
##########                        HBond_Donors:                   2
##########                         Heavy_Atoms:                  24
##########                          Grid_Score:          -33.514179
##########                     Grid_vdw_energy:          -33.867596
##########                      Grid_es_energy:            0.353417
##########           Internal_energy_repulsive:           12.575432

@<TRIPOS>MOLECULE
ZINC001105793963
 51 52 1 0 0
SMALL
USER_CHARGES


@<TRIPOS>ATOM
      1 C1         -8.2962    1.1873   66.7317 C.3     1  ZINC001105793963   -0.1500
      2 C2         -7.7993    0.0390   65.8510 C.3     1  ZINC001105793963   -0.0300
      3 C3         -8.5997    0.0023   64.5746 C.2     1  ZINC001105793963    0.1800
      4 N4         -8.1832   -0.4159   63.4036 N.2     1  ZINC001105793963   -0.4800
      5 C5         -9.2295   -0.2643   62.5721 C.2     1  ZINC001105793963    0.1700
      6 C6         -9.2589   -0.6048   61.1043 C.3     1  ZINC001105793963    0.1500
      7 N7        -10.3502   -1.5529   60.8433 N.3     1  ZINC001105793963   -0.6900
      8 C8        -11.5954   -0.8454   60.5162 C.3     1  ZINC001105793963    0.0700
      9 C9        -12.6798   -1.8621   60.1545 C.3     1  ZINC001105793963   -0.1000
     10 H10       -12.5572   -2.7714   60.7430 H       1  ZINC001105793963    0.1000
     11 C11       -12.6285   -2.1880   58.6462 C.3     1  ZINC001105793963    0.1100
     12 N12       -14.0474   -2.3380   58.2477 N.am    1  ZINC001105793963   -0.6200
     13 C13       -14.5766   -3.2411   57.3986 C.2     1  ZINC001105793963    0.5300
     14 O14       -15.7679   -3.2346   57.1716 O.2     1  ZINC001105793963   -0.5300
     15 C15       -13.6879   -4.2590   56.7314 C.3     1  ZINC001105793963    0.1300
     16 H16       -12.7905   -4.4072   57.3321 H       1  ZINC001105793963    0.1100
     17 C17       -14.4395   -5.5853   56.6016 C.3     1  ZINC001105793963   -0.1600
     18 N18       -13.3103   -3.7793   55.3997 N.am    1  ZINC001105793963   -0.7200
     19 C19       -12.0804   -3.2692   55.1907 C.2     1  ZINC001105793963    0.5200
     20 C20       -11.6926   -2.7741   53.8213 C.3     1  ZINC001105793963   -0.1700
     21 O21       -11.2857   -3.2087   56.1049 O.2     1  ZINC001105793963   -0.5500
     22 C22       -14.7528   -1.2702   58.9941 C.3     1  ZINC001105793963    0.1000
     23 C23       -14.0804   -1.2580   60.3865 C.3     1  ZINC001105793963   -0.1000
     24 H24       -13.9955   -0.2366   60.7574 H       1  ZINC001105793963    0.0900
     25 C25       -14.8791   -2.1155   61.3703 C.3     1  ZINC001105793963   -0.1500
     26 N26       -10.2105    0.2291   63.2668 N.2     1  ZINC001105793963   -0.3700
     27 O27        -9.8710    0.3843   64.4210 O.3     1  ZINC001105793963    0.0800
     28 H28        -8.1757    2.1312   66.2001 H       1  ZINC001105793963    0.0600
     29 H29        -9.3494    1.0348   66.9674 H       1  ZINC001105793963    0.0600
     30 H30        -7.7174    1.2137   67.6549 H       1  ZINC001105793963    0.0800
     31 H31        -6.7461    0.1914   65.6153 H       1  ZINC001105793963    0.1100
     32 H32        -7.9197   -0.9050   66.3826 H       1  ZINC001105793963    0.1000
     33 H33        -9.4200    0.3035   60.5238 H       1  ZINC001105793963    0.1000
     34 H34        -8.3091   -1.0560   60.8169 H       1  ZINC001105793963    0.0700
     35 H35       -10.0994   -2.2005   60.1114 H       1  ZINC001105793963    0.3500
     36 H36       -11.9181   -0.2608   61.3777 H       1  ZINC001105793963    0.0800
     37 H37       -11.4238   -0.1805   59.6696 H       1  ZINC001105793963    0.0400
     38 H38       -12.1637   -1.3697   58.0963 H       1  ZINC001105793963    0.0700
     39 H39       -12.0857   -3.1178   58.4765 H       1  ZINC001105793963    0.0900
     40 H40       -13.7968   -6.3215   56.1189 H       1  ZINC001105793963    0.0800
     41 H41       -14.7205   -5.9422   57.5924 H       1  ZINC001105793963    0.0800
     42 H42       -15.3369   -5.4370   56.0008 H       1  ZINC001105793963    0.0600
     43 H43       -13.9455   -3.8288   54.6682 H       1  ZINC001105793963    0.4100
     44 H44       -12.5293   -2.9089   53.1357 H       1  ZINC001105793963    0.0800
     45 H45       -11.4352   -1.7164   53.8767 H       1  ZINC001105793963    0.1000
     46 H46       -10.8330   -3.3390   53.4606 H       1  ZINC001105793963    0.1000
     47 H47       -14.6197   -0.3085   58.4984 H       1  ZINC001105793963    0.0800
     48 H48       -15.8124   -1.5076   59.0868 H       1  ZINC001105793963    0.0900
     49 H49       -14.9447   -3.1359   60.9927 H       1  ZINC001105793963    0.0600
     50 H50       -14.3793   -2.1179   62.3390 H       1  ZINC001105793963    0.0600
     51 H51       -15.8822   -1.7035   61.4800 H       1  ZINC001105793963    0.0600
@<TRIPOS>BOND
     1     1     2    1
     2     1    28    1
     3     1    29    1
     4     1    30    1
     5     2     3    1
     6     2    31    1
     7     2    32    1
     8     3    27    1
     9     3     4    2
    10     4     5    1
    11     5     6    1
    12     5    26    2
    13     6     7    1
    14     6    33    1
    15     6    34    1
    16     7     8    1
    17     7    35    1
    18     8     9    1
    19     8    36    1
    20     8    37    1
    21     9    10    1
    22     9    23    1
    23     9    11    1
    24    11    12    1
    25    11    38    1
    26    11    39    1
    27    12    13   am
    28    12    22    1
    29    13    14    2
    30    13    15    1
    31    15    16    1
    32    15    17    1
    33    15    18    1
    34    17    40    1
    35    17    41    1
    36    17    42    1
    37    18    19   am
    38    18    43    1
    39    19    20    1
    40    19    21    2
    41    20    44    1
    42    20    45    1
    43    20    46    1
    44    22    23    1
    45    22    47    1
    46    22    48    1
    47    23    24    1
    48    23    25    1
    49    25    49    1
    50    25    50    1
    51    25    51    1
    52    26    27    1
@<TRIPOS>SUBSTRUCTURE
     1 ZINC001105793963        1 TEMP              0 ****  ****    0 ROOT


##########                                Name:    ZINC000031496632
##########                DOCK_Rotatable_Bonds:                   8
##########                         Heavy_Atoms:                  30
##########                    Molecular_Weight:             423.539
##########                DOCK_Rotatable_Bonds:                   8
##########                       Formal_Charge:          -0.0100009
##########                     HBond_Acceptors:                   8
##########                        HBond_Donors:                   1
##########                         Heavy_Atoms:                  30
##########                          Grid_Score:          -33.496334
##########                     Grid_vdw_energy:          -33.465210
##########                      Grid_es_energy:           -0.031125
##########           Internal_energy_repulsive:            8.814998

@<TRIPOS>MOLECULE
ZINC000031496632
 55 58 1 0 0
SMALL
USER_CHARGES


@<TRIPOS>ATOM
      1 C1         -3.9059    2.5738   49.8822 C.3     1  ZINC000031496632   -0.1600
      2 C2         -4.7251    2.1232   51.0933 C.3     1  ZINC000031496632    0.1600
      3 C3         -4.2214    2.8429   52.3460 C.3     1  ZINC000031496632   -0.1600
      4 N4         -6.1367    2.4499   50.8769 N.pl3   1  ZINC000031496632   -0.3900
      5 N5         -6.6253    3.3250   49.9019 N.2     1  ZINC000031496632   -0.2300
      6 C6         -7.9237    3.3957   49.9741 C.2     1  ZINC000031496632    0.0800
      7 C7         -8.3554    2.5212   51.0589 C.ar    1  ZINC000031496632   -0.2100
      8 C8         -9.5998    2.1861   51.6049 C.ar    1  ZINC000031496632    0.0100
      9 C9         -9.6264    1.2927   52.6644 C.ar    1  ZINC000031496632    0.0500
     10 N10       -10.8455    0.9232   53.2475 N.am    1  ZINC000031496632   -0.6600
     11 C11       -11.5480   -0.1104   52.7430 C.2     1  ZINC000031496632    0.5500
     12 O12       -11.1237   -0.7223   51.7813 O.2     1  ZINC000031496632   -0.4900
     13 C13       -12.8303   -0.4991   53.3564 C.ar    1  ZINC000031496632   -0.1300
     14 C14       -14.0026    0.1870   53.0294 C.ar    1  ZINC000031496632   -0.0600
     15 C15       -15.1983   -0.1812   53.6065 C.ar    1  ZINC000031496632   -0.1400
     16 C16       -15.2460   -1.2299   54.5115 C.ar    1  ZINC000031496632   -0.0600
     17 C17       -14.0976   -1.9175   54.8457 C.ar    1  ZINC000031496632   -0.1500
     18 C18       -12.8828   -1.5655   54.2693 C.ar    1  ZINC000031496632   -0.0600
     19 S19       -11.4141   -2.4418   54.6932 S.3     1  ZINC000031496632    0.0900
     20 C20       -11.4686   -2.4765   56.5060 C.3     1  ZINC000031496632   -0.2000
     21 C21       -11.0144   -1.1455   57.0477 C.2     1  ZINC000031496632    0.5500
     22 O22       -11.2140   -0.1321   56.4122 O.2     1  ZINC000031496632   -0.5200
     23 N23       -10.3860   -1.0815   58.2384 N.am    1  ZINC000031496632   -0.6200
     24 C24       -10.0737   -2.2272   59.1051 C.3     1  ZINC000031496632    0.1000
     25 C25        -9.3788   -1.6719   60.3661 C.3     1  ZINC000031496632   -0.1300
     26 C26        -9.8456   -0.1925   60.3970 C.3     1  ZINC000031496632   -0.1300
     27 C27        -9.8924    0.1483   58.8843 C.3     1  ZINC000031496632    0.1000
     28 C28        -8.4284    0.7653   53.1436 C.ar    1  ZINC000031496632    0.1600
     29 N29        -7.2718    1.0963   52.6135 N.ar    1  ZINC000031496632   -0.4900
     30 C30        -7.1877    1.9417   51.5940 C.ar    1  ZINC000031496632    0.3000
     31 H31        -2.8556    2.3309   50.0432 H       1  ZINC000031496632    0.0800
     32 H32        -4.2647    2.0611   48.9897 H       1  ZINC000031496632    0.0600
     33 H33        -4.0137    3.6505   49.7507 H       1  ZINC000031496632    0.0700
     34 H34        -4.6172    1.0466   51.2247 H       1  ZINC000031496632    0.1100
     35 H35        -3.1710    2.6000   52.5069 H       1  ZINC000031496632    0.0800
     36 H36        -4.3292    3.9197   52.2145 H       1  ZINC000031496632    0.0700
     37 H37        -4.8049    2.5220   53.2088 H       1  ZINC000031496632    0.0600
     38 H38        -8.5653    3.9944   49.3445 H       1  ZINC000031496632    0.2000
     39 H39       -10.5119    2.6113   51.2128 H       1  ZINC000031496632    0.1500
     40 H40       -11.1839    1.4112   54.0145 H       1  ZINC000031496632    0.4100
     41 H41       -13.9715    1.0055   52.3255 H       1  ZINC000031496632    0.1300
     42 H42       -16.1035    0.3504   53.3524 H       1  ZINC000031496632    0.1300
     43 H43       -16.1884   -1.5104   54.9584 H       1  ZINC000031496632    0.1300
     44 H44       -14.1434   -2.7330   55.5523 H       1  ZINC000031496632    0.1300
     45 H45       -12.4888   -2.6736   56.8352 H       1  ZINC000031496632    0.1100
     46 H46       -10.8096   -3.2627   56.8744 H       1  ZINC000031496632    0.1100
     47 H47       -10.9930   -2.7420   59.3847 H       1  ZINC000031496632    0.0700
     48 H48        -9.4054   -2.9138   58.5854 H       1  ZINC000031496632    0.0700
     49 H49        -9.7161   -2.2014   61.2572 H       1  ZINC000031496632    0.0900
     50 H50        -8.2950   -1.7323   60.2673 H       1  ZINC000031496632    0.0800
     51 H51       -10.8322   -0.1035   60.8517 H       1  ZINC000031496632    0.0800
     52 H52        -9.1203    0.4352   60.9148 H       1  ZINC000031496632    0.0900
     53 H53        -8.8961    0.4002   58.5212 H       1  ZINC000031496632    0.0700
     54 H54       -10.5829    0.9718   58.7022 H       1  ZINC000031496632    0.0800
     55 H55        -8.4509    0.0694   53.9692 H       1  ZINC000031496632    0.1700
@<TRIPOS>BOND
     1     1     2    1
     2     1    31    1
     3     1    32    1
     4     1    33    1
     5     2     3    1
     6     2     4    1
     7     2    34    1
     8     3    35    1
     9     3    36    1
    10     3    37    1
    11     4    30    1
    12     4     5    1
    13     5     6    2
    14     6     7    1
    15     6    38    1
    16     7    30   ar
    17     7     8   ar
    18     8     9   ar
    19     8    39    1
    20     9    10    1
    21     9    28   ar
    22    10    11   am
    23    10    40    1
    24    11    12    2
    25    11    13    1
    26    13    18   ar
    27    13    14   ar
    28    14    15   ar
    29    14    41    1
    30    15    16   ar
    31    15    42    1
    32    16    17   ar
    33    16    43    1
    34    17    18   ar
    35    17    44    1
    36    18    19    1
    37    19    20    1
    38    20    21    1
    39    20    45    1
    40    20    46    1
    41    21    22    2
    42    21    23   am
    43    23    27    1
    44    23    24    1
    45    24    25    1
    46    24    47    1
    47    24    48    1
    48    25    26    1
    49    25    49    1
    50    25    50    1
    51    26    27    1
    52    26    51    1
    53    26    52    1
    54    27    53    1
    55    27    54    1
    56    28    29   ar
    57    28    55    1
    58    29    30   ar
@<TRIPOS>SUBSTRUCTURE
     1 ZINC000031496632        1 TEMP              0 ****  ****    0 ROOT


##########                                Name:    ZINC001574157642
##########                DOCK_Rotatable_Bonds:                   9
##########                         Heavy_Atoms:                  28
##########                    Molecular_Weight:             387.445
##########                DOCK_Rotatable_Bonds:                   9
##########                       Formal_Charge:          -0.0400004
##########                     HBond_Acceptors:                  11
##########                        HBond_Donors:                   4
##########                         Heavy_Atoms:                  28
##########                          Grid_Score:          -33.456581
##########                     Grid_vdw_energy:          -34.334000
##########                      Grid_es_energy:            0.877419
##########           Internal_energy_repulsive:           11.334094

@<TRIPOS>MOLECULE
ZINC001574157642
 53 55 1 0 0
SMALL
USER_CHARGES


@<TRIPOS>ATOM
      1 C1        -15.7216   -2.7799   55.8360 C.3     1  ZINC001574157642   -0.1400
      2 C2        -14.5103   -3.3880   56.5460 C.3     1  ZINC001574157642   -0.0900
      3 C3        -14.7588   -4.8771   56.7938 C.3     1  ZINC001574157642   -0.1500
      4 C4        -13.2672   -3.2172   55.6705 C.3     1  ZINC001574157642   -0.1300
      5 C5        -12.5682   -1.9038   56.0279 C.3     1  ZINC001574157642    0.1300
      6 H6        -13.3132   -1.1181   56.1530 H       1  ZINC001574157642    0.1100
      7 C7        -11.6031   -1.5177   54.9052 C.3     1  ZINC001574157642    0.1100
      8 N8        -10.9354   -0.2593   55.2464 N.pl3   1  ZINC001574157642   -0.7100
      9 C9        -10.1649    0.3984   54.2957 C.ar    1  ZINC001574157642    0.3700
     10 C10        -9.7446   -0.2770   53.1511 C.ar    1  ZINC001574157642    0.0000
     11 N11        -9.0131    0.3463   52.2488 N.ar    1  ZINC001574157642   -0.3700
     12 C12        -8.6762    1.6201   52.4304 C.ar    1  ZINC001574157642    0.0800
     13 C13        -7.8532    2.3222   51.4147 C.2     1  ZINC001574157642    0.2300
     14 N14        -7.4058    1.8210   50.2802 N.2     1  ZINC001574157642   -0.2700
     15 N15        -6.7340    2.7424   49.6798 N.pl3   1  ZINC001574157642   -0.2300
     16 N16        -6.7413    3.8112   50.3975 N.2     1  ZINC001574157642   -0.0400
     17 N17        -7.4246    3.5914   51.4692 N.2     1  ZINC001574157642   -0.2600
     18 C18        -9.0967    2.2950   53.5741 C.ar    1  ZINC001574157642    0.1600
     19 N19        -9.8336    1.6713   54.4750 N.ar    1  ZINC001574157642   -0.5000
     20 N20       -11.8217   -2.0722   57.2771 N.am    1  ZINC001574157642   -0.7300
     21 C21       -11.6985   -1.0385   58.1331 C.2     1  ZINC001574157642    0.5200
     22 O22       -12.2044    0.0315   57.8685 O.2     1  ZINC001574157642   -0.5100
     23 C23       -10.9321   -1.2122   59.4190 C.3     1  ZINC001574157642   -0.1300
     24 H24       -11.3338   -2.0610   59.9724 H       1  ZINC001574157642    0.1100
     25 C25       -11.0550    0.0595   60.2670 C.3     1  ZINC001574157642   -0.1000
     26 C26       -10.4257   -0.2094   61.6363 C.3     1  ZINC001574157642   -0.1400
     27 C27        -9.0691   -0.8295   61.4623 C.2     1  ZINC001574157642    0.5200
     28 O28        -8.3045   -0.8110   62.4036 O.2     1  ZINC001574157642   -0.5500
     29 N29        -8.6603   -1.4000   60.3284 N.am    1  ZINC001574157642   -0.7200
     30 C30        -9.4550   -1.4559   59.1070 C.3     1  ZINC001574157642    0.1200
     31 H31       -15.8759   -3.2860   54.8830 H       1  ZINC001574157642    0.0400
     32 H32       -16.6071   -2.9016   56.4597 H       1  ZINC001574157642    0.0500
     33 H33       -15.5445   -1.7190   55.6594 H       1  ZINC001574157642    0.0700
     34 H34       -14.3558   -2.8818   57.4989 H       1  ZINC001574157642    0.0700
     35 H35       -14.9132   -5.3832   55.8408 H       1  ZINC001574157642    0.0500
     36 H36       -13.8959   -5.3103   57.2996 H       1  ZINC001574157642    0.0500
     37 H37       -15.6445   -4.9988   57.4174 H       1  ZINC001574157642    0.0500
     38 H38       -12.5851   -4.0500   55.8416 H       1  ZINC001574157642    0.0700
     39 H39       -13.5615   -3.1982   54.6212 H       1  ZINC001574157642    0.0800
     40 H40       -10.8573   -2.3029   54.7812 H       1  ZINC001574157642    0.0800
     41 H41       -12.1584   -1.3940   53.9753 H       1  ZINC001574157642    0.0900
     42 H42       -11.0313    0.1149   56.1363 H       1  ZINC001574157642    0.4100
     43 H43       -10.0182   -1.3113   53.0036 H       1  ZINC001574157642    0.1700
     44 H44        -6.2918    2.6457   48.8219 H       1  ZINC001574157642    0.4800
     45 H45        -8.8231    3.3293   53.7222 H       1  ZINC001574157642    0.1800
     46 H46       -11.4160   -2.9277   57.4882 H       1  ZINC001574157642    0.4000
     47 H47       -10.5303    0.8796   59.7767 H       1  ZINC001574157642    0.0800
     48 H48       -12.1066    0.3178   60.3907 H       1  ZINC001574157642    0.0900
     49 H49       -10.3273    0.7300   62.1803 H       1  ZINC001574157642    0.1100
     50 H50       -11.0645   -0.8884   62.2012 H       1  ZINC001574157642    0.1000
     51 H51        -7.7793   -1.8055   60.3154 H       1  ZINC001574157642    0.4000
     52 H52        -9.3366   -2.4360   58.6448 H       1  ZINC001574157642    0.0800
     53 H53        -9.1058   -0.6900   58.4146 H       1  ZINC001574157642    0.0700
@<TRIPOS>BOND
     1     1     2    1
     2     1    31    1
     3     1    32    1
     4     1    33    1
     5     2     3    1
     6     2     4    1
     7     2    34    1
     8     3    35    1
     9     3    36    1
    10     3    37    1
    11     4     5    1
    12     4    38    1
    13     4    39    1
    14     5     6    1
    15     5     7    1
    16     5    20    1
    17     7     8    1
    18     7    40    1
    19     7    41    1
    20     8     9    1
    21     8    42    1
    22     9    19   ar
    23     9    10   ar
    24    10    11   ar
    25    10    43    1
    26    11    12   ar
    27    12    13    1
    28    12    18   ar
    29    13    17    1
    30    13    14    2
    31    14    15    1
    32    15    16    1
    33    15    44    1
    34    16    17    2
    35    18    19   ar
    36    18    45    1
    37    20    21   am
    38    20    46    1
    39    21    22    2
    40    21    23    1
    41    23    24    1
    42    23    30    1
    43    23    25    1
    44    25    26    1
    45    25    47    1
    46    25    48    1
    47    26    27    1
    48    26    49    1
    49    26    50    1
    50    27    28    2
    51    27    29   am
    52    29    30    1
    53    29    51    1
    54    30    52    1
    55    30    53    1
@<TRIPOS>SUBSTRUCTURE
     1 ZINC001574157642        1 TEMP              0 ****  ****    0 ROOT


##########                                Name:    ZINC000114394234
##########                DOCK_Rotatable_Bonds:                   9
##########                         Heavy_Atoms:                  27
##########                    Molecular_Weight:             365.392
##########                DOCK_Rotatable_Bonds:                   9
##########                       Formal_Charge:           0.0300002
##########                     HBond_Acceptors:                   8
##########                        HBond_Donors:                   3
##########                         Heavy_Atoms:                  27
##########                          Grid_Score:          -33.456074
##########                     Grid_vdw_energy:          -32.375084
##########                      Grid_es_energy:           -1.080991
##########           Internal_energy_repulsive:            8.805593

@<TRIPOS>MOLECULE
ZINC000114394234
 46 48 1 0 0
SMALL
USER_CHARGES


@<TRIPOS>ATOM
      1 C1        -11.9999   -1.2539   52.3483 C.3     1  ZINC000114394234   -0.1600
      2 C2        -10.8554   -1.2071   53.3625 C.3     1  ZINC000114394234    0.1300
      3 H3        -10.2174   -2.0811   53.2311 H       1  ZINC000114394234    0.1200
      4 N4        -10.0664    0.0094   53.1527 N.am    1  ZINC000114394234   -0.7100
      5 C5         -8.9321   -0.0400   52.4266 C.2     1  ZINC000114394234    0.5200
      6 O6         -8.5636   -1.0919   51.9481 O.2     1  ZINC000114394234   -0.5100
      7 C7         -8.1214    1.2115   52.2092 C.3     1  ZINC000114394234    0.0400
      8 O8         -6.7493    0.8627   52.0153 O.3     1  ZINC000114394234   -0.2900
      9 C9         -5.9239    1.8385   51.5530 C.ar    1  ZINC000114394234    0.1300
     10 C10        -4.6524    1.5166   51.1009 C.ar    1  ZINC000114394234   -0.2100
     11 C11        -3.8156    2.5103   50.6311 C.ar    1  ZINC000114394234   -0.0800
     12 C12        -4.2440    3.8247   50.6116 C.ar    1  ZINC000114394234   -0.1600
     13 C13        -5.5106    4.1481   51.0621 C.ar    1  ZINC000114394234   -0.0800
     14 C14        -6.3536    3.1573   51.5271 C.ar    1  ZINC000114394234   -0.1500
     15 C15       -11.4217   -1.2040   54.7591 C.2     1  ZINC000114394234    0.5100
     16 O16       -12.1813   -0.3233   55.1035 O.2     1  ZINC000114394234   -0.5100
     17 N17       -11.0840   -2.1796   55.6254 N.am    1  ZINC000114394234   -0.6700
     18 C18       -11.6098   -2.1766   56.9222 C.ar    1  ZINC000114394234    0.1300
     19 C19       -12.8960   -2.6493   57.1515 C.ar    1  ZINC000114394234   -0.1200
     20 C20       -13.4187   -2.6479   58.4311 C.ar    1  ZINC000114394234   -0.1000
     21 C21       -12.6661   -2.1766   59.4880 C.ar    1  ZINC000114394234   -0.0900
     22 C22       -11.3751   -1.7000   59.2670 C.ar    1  ZINC000114394234    0.0000
     23 C23       -10.5649   -1.1925   60.4021 C.2     1  ZINC000114394234    0.2700
     24 N24        -9.3121   -1.5058   60.6502 N.2     1  ZINC000114394234   -0.3000
     25 N25        -8.9429   -0.8060   61.8105 N.pl3   1  ZINC000114394234   -0.4800
     26 C26       -10.0235   -0.1017   62.1924 C.2     1  ZINC000114394234    0.2700
     27 N27       -10.9870   -0.3346   61.3408 N.2     1  ZINC000114394234   -0.5300
     28 C28       -10.8452   -1.7072   57.9798 C.ar    1  ZINC000114394234   -0.0800
     29 H29       -12.6379   -0.3800   52.4797 H       1  ZINC000114394234    0.0700
     30 H30       -11.5904   -1.2563   51.3381 H       1  ZINC000114394234    0.0800
     31 H31       -12.5869   -2.1590   52.5044 H       1  ZINC000114394234    0.0800
     32 H32       -10.3604    0.8503   53.5364 H       1  ZINC000114394234    0.4100
     33 H33        -8.4912    1.7354   51.3278 H       1  ZINC000114394234    0.1000
     34 H34        -8.2119    1.8591   53.0813 H       1  ZINC000114394234    0.1000
     35 H35        -4.3170    0.4900   51.1167 H       1  ZINC000114394234    0.1300
     36 H36        -2.8257    2.2601   50.2791 H       1  ZINC000114394234    0.1300
     37 H37        -3.5882    4.6001   50.2442 H       1  ZINC000114394234    0.1300
     38 H38        -5.8429    5.1756   51.0461 H       1  ZINC000114394234    0.1300
     39 H39        -7.3428    3.4105   51.8788 H       1  ZINC000114394234    0.1300
     40 H40       -10.4765   -2.8839   55.3499 H       1  ZINC000114394234    0.4200
     41 H41       -13.4890   -3.0185   56.3279 H       1  ZINC000114394234    0.1300
     42 H42       -14.4190   -3.0164   58.6044 H       1  ZINC000114394234    0.1400
     43 H43       -13.0780   -2.1766   60.4864 H       1  ZINC000114394234    0.1400
     44 H44        -8.0786   -0.8268   62.2502 H       1  ZINC000114394234    0.4400
     45 H45       -10.0831    0.5486   63.0526 H       1  ZINC000114394234    0.2300
     46 H46        -9.8454   -1.3390   57.8036 H       1  ZINC000114394234    0.1500
@<TRIPOS>BOND
     1     1     2    1
     2     1    29    1
     3     1    30    1
     4     1    31    1
     5     2     3    1
     6     2     4    1
     7     2    15    1
     8     4     5   am
     9     4    32    1
    10     5     6    2
    11     5     7    1
    12     7     8    1
    13     7    33    1
    14     7    34    1
    15     8     9    1
    16     9    14   ar
    17     9    10   ar
    18    10    11   ar
    19    10    35    1
    20    11    12   ar
    21    11    36    1
    22    12    13   ar
    23    12    37    1
    24    13    14   ar
    25    13    38    1
    26    14    39    1
    27    15    16    2
    28    15    17   am
    29    17    18    1
    30    17    40    1
    31    18    28   ar
    32    18    19   ar
    33    19    20   ar
    34    19    41    1
    35    20    21   ar
    36    20    42    1
    37    21    22   ar
    38    21    43    1
    39    22    23    1
    40    22    28   ar
    41    23    27    1
    42    23    24    2
    43    24    25    1
    44    25    26    1
    45    25    44    1
    46    26    27    2
    47    26    45    1
    48    28    46    1
@<TRIPOS>SUBSTRUCTURE
     1 ZINC000114394234        1 TEMP              0 ****  ****    0 ROOT


##########                                Name:    ZINC000503413572
##########                DOCK_Rotatable_Bonds:                   7
##########                         Heavy_Atoms:                  26
##########                    Molecular_Weight:             355.375
##########                DOCK_Rotatable_Bonds:                   7
##########                       Formal_Charge:        -1.71363e-07
##########                     HBond_Acceptors:                   9
##########                        HBond_Donors:                   1
##########                         Heavy_Atoms:                  26
##########                          Grid_Score:          -33.392925
##########                     Grid_vdw_energy:          -32.581085
##########                      Grid_es_energy:           -0.811841
##########           Internal_energy_repulsive:           11.976367

@<TRIPOS>MOLECULE
ZINC000503413572
 44 47 1 0 0
SMALL
USER_CHARGES


@<TRIPOS>ATOM
      1 C1         -8.5326    3.4036   50.9905 C.3     1  ZINC000503413572   -0.1200
      2 C2         -7.1509    2.8021   50.9942 C.ar    1  ZINC000503413572   -0.0200
      3 C3         -6.0966    3.4896   50.4262 C.ar    1  ZINC000503413572   -0.1400
      4 C4         -4.8264    2.9373   50.4296 C.ar    1  ZINC000503413572    0.1300
      5 F5         -3.7960    3.6115   49.8739 F       1  ZINC000503413572   -0.1300
      6 C6         -4.6112    1.6952   51.0026 C.ar    1  ZINC000503413572   -0.1400
      7 C7         -5.6634    1.0046   51.5717 C.ar    1  ZINC000503413572   -0.0700
      8 C8         -6.9360    1.5588   51.5737 C.ar    1  ZINC000503413572    0.1000
      9 N9         -8.0057    0.8591   52.1517 N.pl3   1  ZINC000503413572   -0.3100
     10 C10        -8.8067    1.2927   53.1489 C.2     1  ZINC000503413572    0.1100
     11 C11        -9.7075    0.2951   53.3938 C.2     1  ZINC000503413572   -0.1000
     12 C12       -10.7793    0.3306   54.4067 C.2     1  ZINC000503413572    0.6100
     13 O13       -11.2198    1.3976   54.7885 O.2     1  ZINC000503413572   -0.5300
     14 N14       -11.2702   -0.8197   54.9090 N.am    1  ZINC000503413572   -0.7200
     15 C15       -12.3359   -0.7845   55.9137 C.3     1  ZINC000503413572    0.1100
     16 C16       -11.7172   -0.7627   57.3128 C.3     1  ZINC000503413572    0.1000
     17 N17       -11.2291   -2.1018   57.6517 N.pl3   1  ZINC000503413572   -0.4700
     18 C18       -11.7387   -3.2853   57.2327 C.2     1  ZINC000503413572    0.1500
     19 N19       -11.0122   -4.2307   57.7639 N.2     1  ZINC000503413572   -0.2900
     20 N20       -10.0842   -3.7098   58.4858 N.2     1  ZINC000503413572   -0.2900
     21 C21       -10.1730   -2.4082   58.4433 C.2     1  ZINC000503413572    0.2100
     22 C22        -9.2737   -1.4281   59.1517 C.3     1  ZINC000503413572   -0.1000
     23 C23        -9.9411   -0.3078   59.9519 C.3     1  ZINC000503413572   -0.1500
     24 C24        -9.2548   -1.4646   60.6811 C.3     1  ZINC000503413572   -0.1600
     25 N25        -9.4521   -0.7243   52.5557 N.2     1  ZINC000503413572   -0.2000
     26 N26        -8.4533   -0.4226   51.8014 N.2     1  ZINC000503413572   -0.0400
     27 H27        -8.7048    3.9239   51.9327 H       1  ZINC000503413572    0.0900
     28 H28        -8.6194    4.1095   50.1645 H       1  ZINC000503413572    0.0800
     29 H29        -9.2730    2.6125   50.8718 H       1  ZINC000503413572    0.0700
     30 H30        -6.2627    4.4583   49.9786 H       1  ZINC000503413572    0.1500
     31 H31        -3.6202    1.2659   51.0041 H       1  ZINC000503413572    0.1500
     32 H32        -5.4953    0.0357   52.0180 H       1  ZINC000503413572    0.1500
     33 H33        -8.7464    2.2445   53.6556 H       1  ZINC000503413572    0.2100
     34 H34       -10.9179   -1.6710   54.6053 H       1  ZINC000503413572    0.4100
     35 H35       -12.9412    0.1105   55.7700 H       1  ZINC000503413572    0.0800
     36 H36       -12.9642   -1.6689   55.8080 H       1  ZINC000503413572    0.0800
     37 H37       -10.8862   -0.0576   57.3317 H       1  ZINC000503413572    0.1100
     38 H38       -12.4705   -0.4561   58.0385 H       1  ZINC000503413572    0.1100
     39 H39       -12.5888   -3.4213   56.5806 H       1  ZINC000503413572    0.2200
     40 H40        -8.3387   -1.1950   58.6422 H       1  ZINC000503413572    0.1200
     41 H41        -9.4452    0.6627   59.9690 H       1  ZINC000503413572    0.1100
     42 H42       -11.0307   -0.2797   59.9660 H       1  ZINC000503413572    0.1100
     43 H43        -9.8929   -2.1975   61.1750 H       1  ZINC000503413572    0.1000
     44 H44        -8.3075   -1.2552   61.1778 H       1  ZINC000503413572    0.1100
@<TRIPOS>BOND
     1     1     2    1
     2     1    27    1
     3     1    28    1
     4     1    29    1
     5     2     8   ar
     6     2     3   ar
     7     3     4   ar
     8     3    30    1
     9     4     5    1
    10     4     6   ar
    11     6     7   ar
    12     6    31    1
    13     7     8   ar
    14     7    32    1
    15     8     9    1
    16     9    26    1
    17     9    10    1
    18    10    11    2
    19    10    33    1
    20    11    12    1
    21    11    25    1
    22    12    13    2
    23    12    14   am
    24    14    15    1
    25    14    34    1
    26    15    16    1
    27    15    35    1
    28    15    36    1
    29    16    17    1
    30    16    37    1
    31    16    38    1
    32    17    21    1
    33    17    18    1
    34    18    19    2
    35    18    39    1
    36    19    20    1
    37    20    21    2
    38    21    22    1
    39    22    24    1
    40    22    23    1
    41    22    40    1
    42    23    24    1
    43    23    41    1
    44    23    42    1
    45    24    43    1
    46    24    44    1
    47    25    26    2
@<TRIPOS>SUBSTRUCTURE
     1 ZINC000503413572        1 TEMP              0 ****  ****    0 ROOT


##########                                Name:    ZINC000762187039
##########                DOCK_Rotatable_Bonds:                   9
##########                         Heavy_Atoms:                  25
##########                    Molecular_Weight:             354.473
##########                DOCK_Rotatable_Bonds:                   9
##########                       Formal_Charge:        -1.78814e-07
##########                     HBond_Acceptors:                   5
##########                        HBond_Donors:                   1
##########                         Heavy_Atoms:                  25
##########                          Grid_Score:          -33.329037
##########                     Grid_vdw_energy:          -33.515396
##########                      Grid_es_energy:            0.186361
##########           Internal_energy_repulsive:            6.502742

@<TRIPOS>MOLECULE
ZINC000762187039
 47 49 1 0 0
SMALL
USER_CHARGES


@<TRIPOS>ATOM
      1 C1         -2.7198    2.1980   50.7004 C.3     1  ZINC000762187039   -0.0800
      2 C2         -4.2238    2.2892   50.6727 C.2     1  ZINC000762187039    0.0500
      3 N3         -5.0248    1.4572   51.2480 N.2     1  ZINC000762187039   -0.4700
      4 C4         -6.3171    1.6845   51.1252 C.2     1  ZINC000762187039    0.0700
      5 C5         -7.3638    0.7952   51.7450 C.3     1  ZINC000762187039   -0.0300
      6 C6         -8.5860    1.6338   52.1243 C.3     1  ZINC000762187039   -0.1300
      7 C7         -9.6196    0.7501   52.7739 C.2     1  ZINC000762187039    0.5200
      8 O8         -9.5630    0.5250   53.9643 O.2     1  ZINC000762187039   -0.5400
      9 N9        -10.6068    0.2101   52.0320 N.am    1  ZINC000762187039   -0.7300
     10 C10       -11.6106   -0.6501   52.6632 C.3     1  ZINC000762187039    0.1200
     11 C11       -11.1660   -2.1107   52.5633 C.3     1  ZINC000762187039   -0.1300
     12 C12       -12.0318   -2.9716   53.4853 C.3     1  ZINC000762187039    0.0600
     13 O13       -11.3203   -3.2372   54.6959 O.3     1  ZINC000762187039   -0.3100
     14 C14       -11.9691   -2.9801   55.8618 C.ar    1  ZINC000762187039    0.1300
     15 C15       -11.5339   -1.9309   56.6767 C.ar    1  ZINC000762187039   -0.1900
     16 C16       -12.1627   -1.6490   57.8494 C.ar    1  ZINC000762187039   -0.0600
     17 C17       -13.2665   -2.4209   58.2514 C.ar    1  ZINC000762187039   -0.0800
     18 C18       -13.9398   -2.1571   59.4563 C.ar    1  ZINC000762187039   -0.0900
     19 C19       -15.0054   -2.9242   59.8146 C.ar    1  ZINC000762187039   -0.1300
     20 C20       -15.4415   -3.9706   59.0037 C.ar    1  ZINC000762187039   -0.1000
     21 C21       -14.8144   -4.2558   57.8301 C.ar    1  ZINC000762187039   -0.1200
     22 C22       -13.7100   -3.4851   57.4264 C.ar    1  ZINC000762187039   -0.0100
     23 C23       -13.0416   -3.7468   56.2196 C.ar    1  ZINC000762187039   -0.1500
     24 C24        -6.6232    2.7688   50.4063 C.2     1  ZINC000762187039   -0.2600
     25 S25        -5.1156    3.5141   49.8806 S.3     1  ZINC000762187039    0.1200
     26 H26        -2.2950    3.0303   50.1392 H       1  ZINC000762187039    0.0800
     27 H27        -2.3722    2.2407   51.7326 H       1  ZINC000762187039    0.0900
     28 H28        -2.4045    1.2572   50.2494 H       1  ZINC000762187039    0.0900
     29 H29        -7.6580    0.0271   51.0298 H       1  ZINC000762187039    0.0900
     30 H30        -6.9561    0.3225   52.6387 H       1  ZINC000762187039    0.0900
     31 H31        -8.2874    2.4166   52.8214 H       1  ZINC000762187039    0.0900
     32 H32        -9.0078    2.0874   51.2274 H       1  ZINC000762187039    0.1000
     33 H33       -10.6527    0.3913   51.0802 H       1  ZINC000762187039    0.4000
     34 H34       -11.7178   -0.3740   53.7122 H       1  ZINC000762187039    0.0700
     35 H35       -12.5669   -0.5259   52.1552 H       1  ZINC000762187039    0.0700
     36 H36       -11.2771   -2.4547   51.5349 H       1  ZINC000762187039    0.0800
     37 H37       -10.1215   -2.1940   52.8635 H       1  ZINC000762187039    0.0800
     38 H38       -12.9557   -2.4412   53.7158 H       1  ZINC000762187039    0.0700
     39 H39       -12.2673   -3.9127   52.9884 H       1  ZINC000762187039    0.0700
     40 H40       -10.6860   -1.3357   56.3710 H       1  ZINC000762187039    0.1300
     41 H41       -11.8152   -0.8359   58.4693 H       1  ZINC000762187039    0.1300
     42 H42       -13.6133   -1.3497   60.0951 H       1  ZINC000762187039    0.1300
     43 H43       -15.5207   -2.7193   60.7414 H       1  ZINC000762187039    0.1200
     44 H44       -16.2895   -4.5644   59.3116 H       1  ZINC000762187039    0.1200
     45 H45       -15.1634   -5.0696   57.2119 H       1  ZINC000762187039    0.1300
     46 H46       -13.3713   -4.5519   55.5797 H       1  ZINC000762187039    0.1300
     47 H47        -7.6186    3.1269   50.1892 H       1  ZINC000762187039    0.1800
@<TRIPOS>BOND
     1     1     2    1
     2     1    26    1
     3     1    27    1
     4     1    28    1
     5     2    25    1
     6     2     3    2
     7     3     4    1
     8     4     5    1
     9     4    24    2
    10     5     6    1
    11     5    29    1
    12     5    30    1
    13     6     7    1
    14     6    31    1
    15     6    32    1
    16     7     8    2
    17     7     9   am
    18     9    10    1
    19     9    33    1
    20    10    11    1
    21    10    34    1
    22    10    35    1
    23    11    12    1
    24    11    36    1
    25    11    37    1
    26    12    13    1
    27    12    38    1
    28    12    39    1
    29    13    14    1
    30    14    23   ar
    31    14    15   ar
    32    15    16   ar
    33    15    40    1
    34    16    17   ar
    35    16    41    1
    36    17    22   ar
    37    17    18   ar
    38    18    19   ar
    39    18    42    1
    40    19    20   ar
    41    19    43    1
    42    20    21   ar
    43    20    44    1
    44    21    22   ar
    45    21    45    1
    46    22    23   ar
    47    23    46    1
    48    24    25    1
    49    24    47    1
@<TRIPOS>SUBSTRUCTURE
     1 ZINC000762187039        1 TEMP              0 ****  ****    0 ROOT


##########                                Name:    ZINC001461256440
##########                DOCK_Rotatable_Bonds:                  13
##########                         Heavy_Atoms:                  26
##########                    Molecular_Weight:             367.445
##########                DOCK_Rotatable_Bonds:                  13
##########                       Formal_Charge:        -6.37025e-07
##########                     HBond_Acceptors:                   8
##########                        HBond_Donors:                   1
##########                         Heavy_Atoms:                  26
##########                          Grid_Score:          -33.326603
##########                     Grid_vdw_energy:          -30.399435
##########                      Grid_es_energy:           -2.927167
##########           Internal_energy_repulsive:           36.130596

@<TRIPOS>MOLECULE
ZINC001461256440
 55 55 1 0 0
SMALL
USER_CHARGES


@<TRIPOS>ATOM
      1 C1        -11.3882   -3.1502   56.4168 C.3     1  ZINC001461256440   -0.1500
      2 C2        -11.2857   -3.1049   57.9428 C.3     1  ZINC001461256440    0.0600
      3 O3        -10.0089   -2.5288   58.3252 O.3     1  ZINC001461256440   -0.3600
      4 C4         -9.8650   -2.1641   59.6089 C.2     1  ZINC001461256440    0.4400
      5 O5        -10.6574   -2.5449   60.4376 O.2     1  ZINC001461256440   -0.4800
      6 C6         -8.7150   -1.2795   60.0165 C.3     1  ZINC001461256440    0.1400
      7 N7         -8.7941   -0.0100   59.2898 N.pl3   1  ZINC001461256440   -0.3800
      8 N8         -8.4353    0.1976   57.9518 N.2     1  ZINC001461256440   -0.2800
      9 C9         -8.6445    1.4558   57.6592 C.2     1  ZINC001461256440    0.1000
     10 C10        -8.3917    2.1045   56.3227 C.3     1  ZINC001461256440   -0.0700
     11 C11        -9.1433    2.0946   58.7977 C.2     1  ZINC001461256440   -0.2700
     12 C12        -9.2320    1.1678   59.7904 C.2     1  ZINC001461256440    0.3100
     13 N13        -9.6843    1.3934   61.0904 N.am    1  ZINC001461256440   -0.6500
     14 C14       -11.0068    1.4545   61.3427 C.2     1  ZINC001461256440    0.5200
     15 O15       -11.8037    1.3118   60.4395 O.2     1  ZINC001461256440   -0.5000
     16 C16       -11.4955    1.7000   62.7469 C.3     1  ZINC001461256440   -0.1300
     17 C17       -10.7041    0.8267   63.7224 C.3     1  ZINC001461256440   -0.1100
     18 C18        -9.6375    1.6755   64.4169 C.3     1  ZINC001461256440   -0.1100
     19 C19        -8.7945    0.7860   65.3331 C.3     1  ZINC001461256440   -0.1200
     20 C20        -7.6694    1.5963   65.9236 C.2     1  ZINC001461256440    0.4600
     21 O21        -7.8241    2.1667   66.9773 O.2     1  ZINC001461256440   -0.5000
     22 O22        -6.4953    1.6842   65.2788 O.3     1  ZINC001461256440   -0.3500
     23 C23        -5.4568    2.4816   65.9062 C.3     1  ZINC001461256440    0.1200
     24 C24        -4.2022    2.4651   65.0307 C.3     1  ZINC001461256440   -0.1800
     25 C25        -5.9472    3.9219   66.0676 C.3     1  ZINC001461256440   -0.1400
     26 C26        -5.1266    1.8982   67.2815 C.3     1  ZINC001461256440   -0.1800
     27 H27       -12.3466   -3.5826   56.1297 H       1  ZINC001461256440    0.0800
     28 H28       -11.3115   -2.1390   56.0174 H       1  ZINC001461256440    0.0700
     29 H29       -10.5793   -3.7613   56.0164 H       1  ZINC001461256440    0.0700
     30 H30       -12.0946   -2.4938   58.3433 H       1  ZINC001461256440    0.0700
     31 H31       -11.3623   -4.1162   58.3422 H       1  ZINC001461256440    0.0700
     32 H32        -8.7658   -1.0884   61.0884 H       1  ZINC001461256440    0.1300
     33 H33        -7.7736   -1.7754   59.7801 H       1  ZINC001461256440    0.1400
     34 H34        -9.2894    2.0332   55.7086 H       1  ZINC001461256440    0.0800
     35 H35        -8.1351    3.1535   56.4708 H       1  ZINC001461256440    0.0800
     36 H36        -7.5676    1.5961   55.8220 H       1  ZINC001461256440    0.0700
     37 H37        -9.4136    3.1375   58.8749 H       1  ZINC001461256440    0.1800
     38 H38        -9.0470    1.5063   61.8128 H       1  ZINC001461256440    0.4100
     39 H39       -11.3540    2.7502   63.0024 H       1  ZINC001461256440    0.1000
     40 H40       -12.5544    1.4499   62.8120 H       1  ZINC001461256440    0.1000
     41 H41       -11.3808    0.4111   64.4691 H       1  ZINC001461256440    0.0800
     42 H42       -10.2236    0.0152   63.1759 H       1  ZINC001461256440    0.0800
     43 H43        -8.9950    2.1368   63.6669 H       1  ZINC001461256440    0.0700
     44 H44       -10.1204    2.4527   65.0093 H       1  ZINC001461256440    0.0700
     45 H45        -9.4201    0.3943   66.1351 H       1  ZINC001461256440    0.1100
     46 H46        -8.3822   -0.0420   64.7565 H       1  ZINC001461256440    0.1100
     47 H47        -4.4374    2.8808   64.0508 H       1  ZINC001461256440    0.0600
     48 H48        -3.4225    3.0638   65.5016 H       1  ZINC001461256440    0.0700
     49 H49        -3.8528    1.4391   64.9156 H       1  ZINC001461256440    0.0800
     50 H50        -6.8410    3.9337   66.6913 H       1  ZINC001461256440    0.0700
     51 H51        -5.1675    4.5205   66.5386 H       1  ZINC001461256440    0.0800
     52 H52        -6.1824    4.3376   65.0877 H       1  ZINC001461256440    0.0700
     53 H53        -4.7772    0.8721   67.1665 H       1  ZINC001461256440    0.0800
     54 H54        -4.3470    2.4968   67.7524 H       1  ZINC001461256440    0.0700
     55 H55        -6.0204    1.9099   67.9053 H       1  ZINC001461256440    0.0600
@<TRIPOS>BOND
     1     1     2    1
     2     1    27    1
     3     1    28    1
     4     1    29    1
     5     2     3    1
     6     2    30    1
     7     2    31    1
     8     3     4    1
     9     4     5    2
    10     4     6    1
    11     6     7    1
    12     6    32    1
    13     6    33    1
    14     7    12    1
    15     7     8    1
    16     8     9    2
    17     9    10    1
    18     9    11    1
    19    10    34    1
    20    10    35    1
    21    10    36    1
    22    11    12    2
    23    11    37    1
    24    12    13    1
    25    13    14   am
    26    13    38    1
    27    14    15    2
    28    14    16    1
    29    16    17    1
    30    16    39    1
    31    16    40    1
    32    17    18    1
    33    17    41    1
    34    17    42    1
    35    18    19    1
    36    18    43    1
    37    18    44    1
    38    19    20    1
    39    19    45    1
    40    19    46    1
    41    20    21    2
    42    20    22    1
    43    22    23    1
    44    23    24    1
    45    23    25    1
    46    23    26    1
    47    24    47    1
    48    24    48    1
    49    24    49    1
    50    25    50    1
    51    25    51    1
    52    25    52    1
    53    26    53    1
    54    26    54    1
    55    26    55    1
@<TRIPOS>SUBSTRUCTURE
     1 ZINC001461256440        1 TEMP              0 ****  ****    0 ROOT


##########                                Name:    ZINC000508782983
##########                DOCK_Rotatable_Bonds:                   9
##########                         Heavy_Atoms:                  27
##########                    Molecular_Weight:             373.458
##########                DOCK_Rotatable_Bonds:                   9
##########                       Formal_Charge:          -0.0200006
##########                     HBond_Acceptors:                   9
##########                        HBond_Donors:                   2
##########                         Heavy_Atoms:                  27
##########                          Grid_Score:          -33.325592
##########                     Grid_vdw_energy:          -32.989689
##########                      Grid_es_energy:           -0.335905
##########           Internal_energy_repulsive:           13.239007

@<TRIPOS>MOLECULE
ZINC000508782983
 54 56 1 0 0
SMALL
USER_CHARGES


@<TRIPOS>ATOM
      1 C1         -3.8985    1.7834   51.4464 C.3     1  ZINC000508782983   -0.1500
      2 C2         -5.1477    2.6518   51.6086 C.3     1  ZINC000508782983   -0.1100
      3 C3         -4.7641    4.1270   51.4758 C.3     1  ZINC000508782983   -0.1500
      4 C4         -6.1647    2.2898   50.5243 C.3     1  ZINC000508782983    0.1000
      5 N5         -7.4261    2.9879   50.7852 N.pl3   1  ZINC000508782983   -0.4400
      6 C6         -7.7867    4.2191   50.3080 C.2     1  ZINC000508782983   -0.0400
      7 C7         -9.0181    4.4776   50.7879 C.2     1  ZINC000508782983   -0.0300
      8 N8         -9.3989    3.4327   51.5377 N.2     1  ZINC000508782983   -0.4700
      9 C9         -8.4523    2.5344   51.5365 C.2     1  ZINC000508782983    0.1700
     10 C10        -8.4939    1.2138   52.2614 C.3     1  ZINC000508782983    0.2100
     11 N11        -9.8880    0.8223   52.4835 N.am    1  ZINC000508782983   -0.6900
     12 C12       -10.2333   -0.4804   52.4658 C.2     1  ZINC000508782983    0.5100
     13 O13        -9.3895   -1.3289   52.2644 O.2     1  ZINC000508782983   -0.5100
     14 C14       -11.6552   -0.8798   52.6943 C.2     1  ZINC000508782983    0.5100
     15 O15       -12.4033   -1.0263   51.7502 O.2     1  ZINC000508782983   -0.5200
     16 N16       -12.1064   -1.0774   53.9488 N.am    1  ZINC000508782983   -0.5800
     17 C17       -13.5003   -1.4768   54.1955 C.3     1  ZINC000508782983    0.0800
     18 C18       -13.4997   -2.7062   55.1103 C.3     1  ZINC000508782983    0.0400
     19 N19       -12.7143   -2.4143   56.3169 N.3     1  ZINC000508782983   -0.5400
     20 C20       -12.8303   -3.5028   57.2965 C.3     1  ZINC000508782983    0.1400
     21 C21       -13.9381   -3.1878   58.2685 C.2     1  ZINC000508782983    0.2100
     22 N22       -15.1800   -3.5730   58.1573 N.2     1  ZINC000508782983   -0.4900
     23 C23       -15.8819   -3.1101   59.2022 C.2     1  ZINC000508782983   -0.0300
     24 C24       -15.0433   -2.4117   59.9910 C.2     1  ZINC000508782983   -0.0500
     25 N25       -13.8088   -2.4651   59.4019 N.pl3   1  ZINC000508782983   -0.5600
     26 C26       -11.3073   -2.1514   55.9862 C.3     1  ZINC000508782983    0.0400
     27 C27       -11.2163   -0.9052   55.1070 C.3     1  ZINC000508782983    0.1100
     28 H28        -3.1740    2.0414   52.2189 H       1  ZINC000508782983    0.0700
     29 H29        -4.1718    0.7325   51.5410 H       1  ZINC000508782983    0.0600
     30 H30        -3.4598    1.9578   50.4640 H       1  ZINC000508782983    0.0600
     31 H31        -5.5865    2.4775   52.5910 H       1  ZINC000508782983    0.0800
     32 H32        -4.2559    4.2861   50.5248 H       1  ZINC000508782983    0.0600
     33 H33        -5.6638    4.7413   51.5142 H       1  ZINC000508782983    0.0600
     34 H34        -4.0995    4.4046   52.2939 H       1  ZINC000508782983    0.0600
     35 H35        -5.7788    2.5888   49.5498 H       1  ZINC000508782983    0.1000
     36 H36        -6.3367    1.2135   50.5324 H       1  ZINC000508782983    0.0900
     37 H37        -7.1969    4.8602   49.6695 H       1  ZINC000508782983    0.1800
     38 H38        -9.5975    5.3698   50.6017 H       1  ZINC000508782983    0.1700
     39 H39        -7.9944    0.4537   51.6606 H       1  ZINC000508782983    0.0900
     40 H40        -7.9862    1.3099   53.2211 H       1  ZINC000508782983    0.1100
     41 H41       -10.5627    1.5007   52.6434 H       1  ZINC000508782983    0.4200
     42 H42       -14.0349   -0.6599   54.6803 H       1  ZINC000508782983    0.0800
     43 H43       -13.9832   -1.7241   53.2502 H       1  ZINC000508782983    0.1400
     44 H44       -14.5239   -2.9496   55.3930 H       1  ZINC000508782983    0.0900
     45 H45       -13.0567   -3.5513   54.5835 H       1  ZINC000508782983    0.0400
     46 H46       -13.0554   -4.4352   56.7788 H       1  ZINC000508782983    0.0900
     47 H47       -11.8901   -3.6059   57.8383 H       1  ZINC000508782983    0.0700
     48 H48       -16.9352   -3.2697   59.3799 H       1  ZINC000508782983    0.1700
     49 H49       -15.2952   -1.9094   60.9134 H       1  ZINC000508782983    0.1800
     50 H50       -12.9945   -2.0556   59.7337 H       1  ZINC000508782983    0.4200
     51 H51       -10.7415   -1.9926   56.9042 H       1  ZINC000508782983    0.1100
     52 H52       -10.8949   -3.0043   55.4472 H       1  ZINC000508782983    0.0400
     53 H53       -10.1899   -0.7723   54.7654 H       1  ZINC000508782983    0.1000
     54 H54       -11.5317   -0.0312   55.6768 H       1  ZINC000508782983    0.0800
@<TRIPOS>BOND
     1     1     2    1
     2     1    28    1
     3     1    29    1
     4     1    30    1
     5     2     3    1
     6     2     4    1
     7     2    31    1
     8     3    32    1
     9     3    33    1
    10     3    34    1
    11     4     5    1
    12     4    35    1
    13     4    36    1
    14     5     9    1
    15     5     6    1
    16     6     7    2
    17     6    37    1
    18     7     8    1
    19     7    38    1
    20     8     9    2
    21     9    10    1
    22    10    11    1
    23    10    39    1
    24    10    40    1
    25    11    12   am
    26    11    41    1
    27    12    13    2
    28    12    14    1
    29    14    15    2
    30    14    16   am
    31    16    27    1
    32    16    17    1
    33    17    18    1
    34    17    42    1
    35    17    43    1
    36    18    19    1
    37    18    44    1
    38    18    45    1
    39    19    20    1
    40    19    26    1
    41    20    21    1
    42    20    46    1
    43    20    47    1
    44    21    25    1
    45    21    22    2
    46    22    23    1
    47    23    24    2
    48    23    48    1
    49    24    25    1
    50    24    49    1
    51    25    50    1
    52    26    27    1
    53    26    51    1
    54    26    52    1
    55    27    53    1
    56    27    54    1
@<TRIPOS>SUBSTRUCTURE
     1 ZINC000508782983        1 TEMP              0 ****  ****    0 ROOT


##########                                Name:    ZINC001327099466
##########                DOCK_Rotatable_Bonds:                   7
##########                         Heavy_Atoms:                  27
##########                    Molecular_Weight:             374.483
##########                DOCK_Rotatable_Bonds:                   7
##########                       Formal_Charge:           0.0199998
##########                     HBond_Acceptors:                   7
##########                        HBond_Donors:                   1
##########                         Heavy_Atoms:                  27
##########                          Grid_Score:          -33.311466
##########                     Grid_vdw_energy:          -32.805138
##########                      Grid_es_energy:           -0.506327
##########           Internal_energy_repulsive:           11.734563

@<TRIPOS>MOLECULE
ZINC001327099466
 57 60 1 0 0
SMALL
USER_CHARGES


@<TRIPOS>ATOM
      1 O1        -11.7765    0.6874   54.2132 O.2     1  ZINC001327099466   -0.4800
      2 C2        -11.7008   -0.4567   53.8147 C.2     1  ZINC001327099466    0.5300
      3 N3        -10.5664   -0.8942   53.2332 N.am    1  ZINC001327099466   -0.6000
      4 C4         -9.4778   -0.0278   53.0837 C.2     1  ZINC001327099466    0.2900
      5 N5         -8.8173    0.1960   51.9715 N.2     1  ZINC001327099466   -0.3100
      6 N6         -7.8047    1.1247   52.2444 N.pl3   1  ZINC001327099466   -0.3500
      7 C7         -6.8363    1.6503   51.2789 C.3     1  ZINC001327099466    0.1700
      8 C8         -7.1431    3.1229   50.9992 C.3     1  ZINC001327099466   -0.1300
      9 C9         -6.1316    3.6719   49.9910 C.3     1  ZINC001327099466   -0.1200
     10 C10        -4.7191    3.5453   50.5651 C.3     1  ZINC001327099466   -0.1300
     11 C11        -4.4124    2.0728   50.8449 C.3     1  ZINC001327099466   -0.1200
     12 C12        -5.4238    1.5238   51.8532 C.3     1  ZINC001327099466   -0.1300
     13 C13        -7.8777    1.4510   53.5521 C.2     1  ZINC001327099466    0.0700
     14 C14        -8.9044    0.7593   54.0959 C.2     1  ZINC001327099466   -0.2700
     15 C15       -12.8627   -1.3813   53.9743 C.2     1  ZINC001327099466    0.5100
     16 O16       -13.8035   -1.3111   53.2109 O.2     1  ZINC001327099466   -0.5100
     17 N17       -12.8665   -2.2938   54.9662 N.am    1  ZINC001327099466   -0.5700
     18 C18       -14.0023   -3.2103   55.1358 C.3     1  ZINC001327099466    0.0400
     19 C19       -14.5091   -3.1060   56.5777 C.3     1  ZINC001327099466   -0.1300
     20 C20       -13.3477   -3.3590   57.5419 C.3     1  ZINC001327099466   -0.1200
     21 C21       -12.2670   -2.2961   57.3316 C.3     1  ZINC001327099466    0.0800
     22 H22       -12.6931   -1.3065   57.4965 H       1  ZINC001327099466    0.0700
     23 O23       -11.1973   -2.5145   58.2536 O.3     1  ZINC001327099466   -0.3500
     24 C24       -10.3881   -1.3605   58.4890 C.3     1  ZINC001327099466    0.0600
     25 C25       -10.8462   -0.5226   59.6944 C.3     1  ZINC001327099466   -0.1600
     26 C26        -9.9301   -1.4067   60.5571 C.3     1  ZINC001327099466   -0.1400
     27 C27        -9.1059   -1.6590   59.2836 C.3     1  ZINC001327099466   -0.1400
     28 C28       -11.7324   -2.3950   55.8947 C.3     1  ZINC001327099466    0.0900
     29 H29       -10.5045   -1.8095   52.9183 H       1  ZINC001327099466    0.4300
     30 H30        -6.9035    1.0825   50.3510 H       1  ZINC001327099466    0.1000
     31 H31        -8.1493    3.2131   50.5901 H       1  ZINC001327099466    0.0700
     32 H32        -7.0758    3.6907   51.9272 H       1  ZINC001327099466    0.0700
     33 H33        -6.1988    3.1041   49.0630 H       1  ZINC001327099466    0.0700
     34 H34        -6.3502    4.7210   49.7917 H       1  ZINC001327099466    0.0700
     35 H35        -3.9985    3.9364   49.8469 H       1  ZINC001327099466    0.0700
     36 H36        -4.6519    4.1132   51.4932 H       1  ZINC001327099466    0.0700
     37 H37        -4.4796    1.5049   49.9169 H       1  ZINC001327099466    0.0700
     38 H38        -3.4060    1.9826   51.2540 H       1  ZINC001327099466    0.0700
     39 H39        -5.3566    2.0916   52.7811 H       1  ZINC001327099466    0.0700
     40 H40        -5.2052    0.4746   52.0525 H       1  ZINC001327099466    0.0700
     41 H41        -7.2329    2.1447   54.0712 H       1  ZINC001327099466    0.1800
     42 H42        -9.2233    0.8002   55.1270 H       1  ZINC001327099466    0.1700
     43 H43       -14.8007   -2.9341   54.4471 H       1  ZINC001327099466    0.1600
     44 H44       -13.6806   -4.2321   54.9346 H       1  ZINC001327099466    0.0700
     45 H45       -14.9140   -2.1088   56.7498 H       1  ZINC001327099466    0.0700
     46 H46       -15.2886   -3.8494   56.7440 H       1  ZINC001327099466    0.0900
     47 H47       -13.7108   -3.3097   58.5684 H       1  ZINC001327099466    0.0800
     48 H48       -12.9274   -4.3468   57.3526 H       1  ZINC001327099466    0.0800
     49 H49       -10.2162   -0.7730   57.5872 H       1  ZINC001327099466    0.0700
     50 H50       -10.5294    0.5193   59.6475 H       1  ZINC001327099466    0.0900
     51 H51       -11.9053   -0.6341   59.9266 H       1  ZINC001327099466    0.0700
     52 H52        -9.3885   -0.8552   61.3256 H       1  ZINC001327099466    0.0700
     53 H53       -10.4221   -2.2996   60.9429 H       1  ZINC001327099466    0.0800
     54 H54        -8.7600   -2.6880   59.1841 H       1  ZINC001327099466    0.0800
     55 H55        -8.3134   -0.9279   59.1244 H       1  ZINC001327099466    0.0900
     56 H56       -11.2257   -3.3503   55.7584 H       1  ZINC001327099466    0.0900
     57 H57       -11.0345   -1.5789   55.7075 H       1  ZINC001327099466    0.1000
@<TRIPOS>BOND
     1     1     2    2
     2     2     3   am
     3     2    15    1
     4     3     4    1
     5     3    29    1
     6     4    14    1
     7     4     5    2
     8     5     6    1
     9     6     7    1
    10     6    13    1
    11     7    12    1
    12     7     8    1
    13     7    30    1
    14     8     9    1
    15     8    31    1
    16     8    32    1
    17     9    10    1
    18     9    33    1
    19     9    34    1
    20    10    11    1
    21    10    35    1
    22    10    36    1
    23    11    12    1
    24    11    37    1
    25    11    38    1
    26    12    39    1
    27    12    40    1
    28    13    14    2
    29    13    41    1
    30    14    42    1
    31    15    16    2
    32    15    17   am
    33    17    28    1
    34    17    18    1
    35    18    19    1
    36    18    43    1
    37    18    44    1
    38    19    20    1
    39    19    45    1
    40    19    46    1
    41    20    21    1
    42    20    47    1
    43    20    48    1
    44    21    22    1
    45    21    23    1
    46    21    28    1
    47    23    24    1
    48    24    27    1
    49    24    25    1
    50    24    49    1
    51    25    26    1
    52    25    50    1
    53    25    51    1
    54    26    27    1
    55    26    52    1
    56    26    53    1
    57    27    54    1
    58    27    55    1
    59    28    56    1
    60    28    57    1
@<TRIPOS>SUBSTRUCTURE
     1 ZINC001327099466        1 TEMP              0 ****  ****    0 ROOT


##########                                Name:    ZINC000479580180
##########                DOCK_Rotatable_Bonds:                   5
##########                         Heavy_Atoms:                  30
##########                    Molecular_Weight:             404.444
##########                DOCK_Rotatable_Bonds:                   5
##########                       Formal_Charge:           0.0299995
##########                     HBond_Acceptors:                   7
##########                        HBond_Donors:                   1
##########                         Heavy_Atoms:                  30
##########                          Grid_Score:          -33.204376
##########                     Grid_vdw_energy:          -33.528591
##########                      Grid_es_energy:            0.324214
##########           Internal_energy_repulsive:           16.249714

@<TRIPOS>MOLECULE
ZINC000479580180
 51 55 1 0 0
SMALL
USER_CHARGES


@<TRIPOS>ATOM
      1 O1        -13.3465   -4.1633   56.0123 O.2     1  ZINC000479580180   -0.5200
      2 C2        -13.1104   -3.0118   56.3113 C.2     1  ZINC000479580180    0.5200
      3 C3        -13.1688   -2.5809   57.7542 C.3     1  ZINC000479580180   -0.0700
      4 C4        -11.7744   -2.5453   58.3247 C.2     1  ZINC000479580180   -0.1600
      5 C5        -10.7150   -3.2491   57.9039 C.2     1  ZINC000479580180    0.0300
      6 O6         -9.6373   -2.9574   58.6537 O.3     1  ZINC000479580180   -0.1900
      7 C7         -9.9426   -2.0481   59.6009 C.ar    1  ZINC000479580180    0.0800
      8 C8         -9.2074   -1.4289   60.6035 C.ar    1  ZINC000479580180   -0.1400
      9 C9         -9.8195   -0.5155   61.4389 C.ar    1  ZINC000479580180    0.1300
     10 F10        -9.1021    0.0857   62.4132 F       1  ZINC000479580180   -0.1300
     11 C11       -11.1657   -0.2087   61.2870 C.ar    1  ZINC000479580180   -0.1600
     12 C12       -11.9056   -0.8086   60.3058 C.ar    1  ZINC000479580180   -0.0400
     13 C13       -11.3024   -1.7278   59.4492 C.ar    1  ZINC000479580180   -0.1200
     14 N14       -12.7903   -2.1189   55.3538 N.am    1  ZINC000479580180   -0.6200
     15 C15       -12.4901   -0.7234   55.7018 C.3     1  ZINC000479580180    0.1100
     16 C16       -11.1276   -0.3499   55.1097 C.3     1  ZINC000479580180   -0.1300
     17 C17       -11.1336   -0.6354   53.6061 C.3     1  ZINC000479580180   -0.0100
     18 C18        -9.8061   -0.2372   53.0141 C.2     1  ZINC000479580180    0.3000
     19 N19        -9.0613    0.7617   53.4078 N.2     1  ZINC000479580180   -0.5300
     20 C20        -7.9521    0.8229   52.6588 C.2     1  ZINC000479580180    0.2700
     21 C21        -6.8643    1.8219   52.8041 C.ar    1  ZINC000479580180   -0.0200
     22 C22        -5.7356    1.7497   51.9903 C.ar    1  ZINC000479580180   -0.0800
     23 C23        -4.7271    2.6817   52.1293 C.ar    1  ZINC000479580180   -0.1300
     24 C24        -4.8351    3.6856   53.0745 C.ar    1  ZINC000479580180   -0.1000
     25 C25        -5.9535    3.7619   53.8850 C.ar    1  ZINC000479580180   -0.1200
     26 C26        -6.9706    2.8387   53.7506 C.ar    1  ZINC000479580180   -0.0800
     27 N27        -7.9868   -0.1492   51.7741 N.2     1  ZINC000479580180   -0.3000
     28 N28        -9.1823   -0.8526   51.9936 N.pl3   1  ZINC000479580180   -0.4800
     29 C29       -11.3699   -2.1289   53.3698 C.3     1  ZINC000479580180   -0.1400
     30 C30       -12.7293   -2.5240   53.9428 C.3     1  ZINC000479580180    0.1200
     31 H31       -13.6133   -1.5877   57.8191 H       1  ZINC000479580180    0.1100
     32 H32       -13.7751   -3.2880   58.3204 H       1  ZINC000479580180    0.1100
     33 H33       -10.7249   -3.9493   57.0817 H       1  ZINC000479580180    0.2100
     34 H34        -8.1602   -1.6614   60.7295 H       1  ZINC000479580180    0.1500
     35 H35       -11.6309    0.5077   61.9479 H       1  ZINC000479580180    0.1400
     36 H36       -12.9521   -0.5674   60.1919 H       1  ZINC000479580180    0.1300
     37 H37       -13.2592   -0.0704   55.2894 H       1  ZINC000479580180    0.0800
     38 H38       -12.4593   -0.6157   56.7860 H       1  ZINC000479580180    0.0900
     39 H39       -10.9359    0.7099   55.2780 H       1  ZINC000479580180    0.0900
     40 H40       -10.3478   -0.9417   55.5892 H       1  ZINC000479580180    0.0700
     41 H41       -11.9297   -0.0623   53.1309 H       1  ZINC000479580180    0.1200
     42 H42        -5.6499    0.9658   51.2524 H       1  ZINC000479580180    0.1400
     43 H43        -3.8518    2.6267   51.4991 H       1  ZINC000479580180    0.1300
     44 H44        -4.0433    4.4125   53.1805 H       1  ZINC000479580180    0.1300
     45 H45        -6.0326    4.5477   54.6218 H       1  ZINC000479580180    0.1300
     46 H46        -7.8434    2.8993   54.3838 H       1  ZINC000479580180    0.1300
     47 H47        -9.4988   -1.6266   51.5019 H       1  ZINC000479580180    0.4400
     48 H48       -11.3508   -2.3353   52.2997 H       1  ZINC000479580180    0.0900
     49 H49       -10.5879   -2.7039   53.8656 H       1  ZINC000479580180    0.0700
     50 H50       -12.8587   -3.6036   53.8653 H       1  ZINC000479580180    0.1000
     51 H51       -13.5203   -2.0184   53.3890 H       1  ZINC000479580180    0.0800
@<TRIPOS>BOND
     1     1     2    2
     2     2     3    1
     3     2    14   am
     4     3     4    1
     5     3    31    1
     6     3    32    1
     7     4    13    1
     8     4     5    2
     9     5     6    1
    10     5    33    1
    11     6     7    1
    12     7    13   ar
    13     7     8   ar
    14     8     9   ar
    15     8    34    1
    16     9    10    1
    17     9    11   ar
    18    11    12   ar
    19    11    35    1
    20    12    13   ar
    21    12    36    1
    22    14    30    1
    23    14    15    1
    24    15    16    1
    25    15    37    1
    26    15    38    1
    27    16    17    1
    28    16    39    1
    29    16    40    1
    30    17    18    1
    31    17    29    1
    32    17    41    1
    33    18    28    1
    34    18    19    2
    35    19    20    1
    36    20    21    1
    37    20    27    2
    38    21    26   ar
    39    21    22   ar
    40    22    23   ar
    41    22    42    1
    42    23    24   ar
    43    23    43    1
    44    24    25   ar
    45    24    44    1
    46    25    26   ar
    47    25    45    1
    48    26    46    1
    49    27    28    1
    50    28    47    1
    51    29    30    1
    52    29    48    1
    53    29    49    1
    54    30    50    1
    55    30    51    1
@<TRIPOS>SUBSTRUCTURE
     1 ZINC000479580180        1 TEMP              0 ****  ****    0 ROOT


##########                                Name:    ZINC000533037883
##########                DOCK_Rotatable_Bonds:                   7
##########                         Heavy_Atoms:                  27
##########                    Molecular_Weight:             368.479
##########                DOCK_Rotatable_Bonds:                   7
##########                       Formal_Charge:          0.00999947
##########                     HBond_Acceptors:                   6
##########                        HBond_Donors:                   1
##########                         Heavy_Atoms:                  27
##########                          Grid_Score:          -33.165104
##########                     Grid_vdw_energy:          -32.156712
##########                      Grid_es_energy:           -1.008394
##########           Internal_energy_repulsive:           14.624924

@<TRIPOS>MOLECULE
ZINC000533037883
 55 58 1 0 0
SMALL
USER_CHARGES


@<TRIPOS>ATOM
      1 O1         -9.0311   -0.9431   51.8905 O.2     1  ZINC000533037883   -0.5900
      2 C2         -9.5550   -0.4157   52.8528 C.2     1  ZINC000533037883    0.7100
      3 N3         -8.9550    0.6277   53.4592 N.am    1  ZINC000533037883   -0.7500
      4 C4         -7.6685    1.1226   52.9628 C.3     1  ZINC000533037883    0.1400
      5 C5         -7.9057    2.0566   51.7744 C.3     1  ZINC000533037883   -0.0500
      6 C6         -6.5840    2.4129   51.1441 C.2     1  ZINC000533037883   -0.2300
      7 C7         -5.3999    2.5280   51.7888 C.2     1  ZINC000533037883    0.0600
      8 N8         -4.4627    2.8591   50.8720 N.pl3   1  ZINC000533037883   -0.3200
      9 C9         -3.1005    3.0730   51.1248 C.ar    1  ZINC000533037883    0.1600
     10 C10        -2.6183    3.0237   52.4259 C.ar    1  ZINC000533037883   -0.1400
     11 C11        -1.2757    3.2349   52.6717 C.ar    1  ZINC000533037883   -0.0900
     12 C12        -0.4121    3.4956   51.6238 C.ar    1  ZINC000533037883   -0.1300
     13 C13        -0.8893    3.5453   50.3270 C.ar    1  ZINC000533037883   -0.0900
     14 C14        -2.2298    3.3288   50.0741 C.ar    1  ZINC000533037883   -0.1200
     15 N15        -5.0939    2.9499   49.6247 N.2     1  ZINC000533037883   -0.2900
     16 C16        -6.3636    2.6773   49.7879 C.2     1  ZINC000533037883    0.0700
     17 N17       -10.7385   -0.8710   53.3094 N.am    1  ZINC000533037883   -0.6300
     18 C18       -11.4048   -2.0074   52.6589 C.3     1  ZINC000533037883    0.1100
     19 C19       -11.7170   -3.0685   53.7189 C.3     1  ZINC000533037883   -0.1400
     20 C20       -12.5250   -2.4303   54.8512 C.3     1  ZINC000533037883   -0.1100
     21 C21       -11.6995   -1.3210   55.5069 C.3     1  ZINC000533037883   -0.0900
     22 H22       -10.7678   -1.7382   55.8890 H       1  ZINC000533037883    0.0800
     23 C23       -12.4949   -0.7063   56.6603 C.3     1  ZINC000533037883   -0.1200
     24 H24       -13.4437   -0.3050   56.3044 H       1  ZINC000533037883    0.0900
     25 C25       -12.7238   -1.7470   57.7901 C.3     1  ZINC000533037883   -0.1500
     26 C26       -12.8380   -0.8191   59.0258 C.3     1  ZINC000533037883    0.0500
     27 O27       -11.9002    0.2422   58.7859 O.3     1  ZINC000533037883   -0.3900
     28 C28       -11.6704    0.3854   57.3758 C.3     1  ZINC000533037883    0.0500
     29 C29       -11.3841   -0.2440   54.4709 C.3     1  ZINC000533037883    0.1300
     30 H30        -9.3748    1.0509   54.2244 H       1  ZINC000533037883    0.4000
     31 H31        -7.1579    1.6673   53.7568 H       1  ZINC000533037883    0.0700
     32 H32        -7.0531    0.2805   52.6460 H       1  ZINC000533037883    0.0700
     33 H33        -8.5357    1.5562   51.0390 H       1  ZINC000533037883    0.0800
     34 H34        -8.4004    2.9646   52.1190 H       1  ZINC000533037883    0.0800
     35 H35        -5.2333    2.3820   52.8459 H       1  ZINC000533037883    0.1800
     36 H36        -3.2925    2.8208   53.2448 H       1  ZINC000533037883    0.1300
     37 H37        -0.9001    3.1966   53.6837 H       1  ZINC000533037883    0.1300
     38 H38         0.6372    3.6611   51.8187 H       1  ZINC000533037883    0.1300
     39 H39        -0.2124    3.7492   49.5105 H       1  ZINC000533037883    0.1300
     40 H40        -2.6019    3.3675   49.0610 H       1  ZINC000533037883    0.1400
     41 H41        -7.1132    2.6647   49.0106 H       1  ZINC000533037883    0.1900
     42 H42       -12.3318   -1.6708   52.1948 H       1  ZINC000533037883    0.0700
     43 H43       -10.7469   -2.4313   51.9003 H       1  ZINC000533037883    0.0800
     44 H44       -12.2965   -3.8739   53.2677 H       1  ZINC000533037883    0.0800
     45 H45       -10.7853   -3.4693   54.1179 H       1  ZINC000533037883    0.0700
     46 H46       -13.4451   -2.0079   54.4474 H       1  ZINC000533037883    0.0700
     47 H47       -12.7696   -3.1888   55.5948 H       1  ZINC000533037883    0.0700
     48 H48       -13.6471   -2.3036   57.6302 H       1  ZINC000533037883    0.0800
     49 H49       -11.8719   -2.4207   57.8821 H       1  ZINC000533037883    0.0800
     50 H50       -13.8489   -0.4196   59.1068 H       1  ZINC000533037883    0.0600
     51 H51       -12.5710   -1.3620   59.9325 H       1  ZINC000533037883    0.0900
     52 H52       -10.6113    0.2476   57.1579 H       1  ZINC000533037883    0.0700
     53 H53       -11.9911    1.3740   57.0474 H       1  ZINC000533037883    0.0700
     54 H54       -10.7143    0.4974   54.9068 H       1  ZINC000533037883    0.1000
     55 H55       -12.3082    0.2380   54.1519 H       1  ZINC000533037883    0.0700
@<TRIPOS>BOND
     1     1     2    2
     2     2     3   am
     3     2    17   am
     4     3     4    1
     5     3    30    1
     6     4     5    1
     7     4    31    1
     8     4    32    1
     9     5     6    1
    10     5    33    1
    11     5    34    1
    12     6    16    1
    13     6     7    2
    14     7     8    1
    15     7    35    1
    16     8     9    1
    17     8    15    1
    18     9    14   ar
    19     9    10   ar
    20    10    11   ar
    21    10    36    1
    22    11    12   ar
    23    11    37    1
    24    12    13   ar
    25    12    38    1
    26    13    14   ar
    27    13    39    1
    28    14    40    1
    29    15    16    2
    30    16    41    1
    31    17    29    1
    32    17    18    1
    33    18    19    1
    34    18    42    1
    35    18    43    1
    36    19    20    1
    37    19    44    1
    38    19    45    1
    39    20    21    1
    40    20    46    1
    41    20    47    1
    42    21    22    1
    43    21    23    1
    44    21    29    1
    45    23    24    1
    46    23    28    1
    47    23    25    1
    48    25    26    1
    49    25    48    1
    50    25    49    1
    51    26    27    1
    52    26    50    1
    53    26    51    1
    54    27    28    1
    55    28    52    1
    56    28    53    1
    57    29    54    1
    58    29    55    1
@<TRIPOS>SUBSTRUCTURE
     1 ZINC000533037883        1 TEMP              0 ****  ****    0 ROOT


##########                                Name:    ZINC000464139057
##########                DOCK_Rotatable_Bonds:                   9
##########                         Heavy_Atoms:                  30
##########                    Molecular_Weight:              413.56
##########                DOCK_Rotatable_Bonds:                   9
##########                       Formal_Charge:         2.38419e-07
##########                     HBond_Acceptors:                   6
##########                        HBond_Donors:                   2
##########                         Heavy_Atoms:                  30
##########                          Grid_Score:          -33.151615
##########                     Grid_vdw_energy:          -32.325054
##########                      Grid_es_energy:           -0.826563
##########           Internal_energy_repulsive:           11.705515

@<TRIPOS>MOLECULE
ZINC000464139057
 65 67 1 0 0
SMALL
USER_CHARGES


@<TRIPOS>ATOM
      1 C1         -8.5097    3.5262   53.1121 C.3     1  ZINC000464139057   -0.1800
      2 C2         -8.8280    3.1691   51.6589 C.3     1  ZINC000464139057    0.0700
      3 H3         -9.8621    3.4331   51.4372 H       1  ZINC000464139057    0.1200
      4 C4         -7.8905    3.9425   50.7244 C.3     1  ZINC000464139057    0.0800
      5 N5         -6.5228    3.4340   50.9143 N.am    1  ZINC000464139057   -0.6100
      6 C6         -5.4948    4.2757   51.1404 C.2     1  ZINC000464139057    0.5600
      7 O7         -5.6903    5.4742   51.1900 O.2     1  ZINC000464139057   -0.5300
      8 C8         -4.1292    3.7411   51.3282 C.ar    1  ZINC000464139057   -0.1200
      9 C9         -3.5999    3.6057   52.6126 C.ar    1  ZINC000464139057   -0.0900
     10 C10        -2.3252    3.1058   52.7809 C.ar    1  ZINC000464139057   -0.1000
     11 C11        -1.5716    2.7393   51.6799 C.ar    1  ZINC000464139057   -0.0900
     12 C12        -0.1797    2.1944   51.8713 C.3     1  ZINC000464139057    0.1800
     13 N13         0.5903    2.3778   50.6387 N.am    1  ZINC000464139057   -0.7400
     14 C14         1.7771    1.7573   50.4869 C.2     1  ZINC000464139057    0.7000
     15 O15         2.2079    1.0441   51.3723 O.2     1  ZINC000464139057   -0.5900
     16 N16         2.4863    1.9274   49.3535 N.am    1  ZINC000464139057   -0.7500
     17 C17         3.7771    1.2544   49.1892 C.3     1  ZINC000464139057    0.1400
     18 C18         4.4730    1.7851   47.9341 C.3     1  ZINC000464139057   -0.0900
     19 C19         3.9136    1.0920   46.7185 C.2     1  ZINC000464139057   -0.1200
     20 C20         2.8506    1.5578   46.1434 C.2     1  ZINC000464139057   -0.1500
     21 C21         2.2784    0.8713   44.9217 C.3     1  ZINC000464139057   -0.0900
     22 C22         3.2076    1.1327   43.7343 C.3     1  ZINC000464139057   -0.1100
     23 C23         4.3298    0.1106   43.6942 C.3     1  ZINC000464139057   -0.1200
     24 C24         5.2940    0.2190   44.8622 C.3     1  ZINC000464139057   -0.1100
     25 C25         4.6008   -0.1413   46.1724 C.3     1  ZINC000464139057   -0.0800
     26 C26        -2.0905    2.8705   50.4040 C.ar    1  ZINC000464139057   -0.1000
     27 C27        -3.3658    3.3641   50.2222 C.ar    1  ZINC000464139057   -0.0700
     28 C28        -6.3107    1.9792   50.8503 C.3     1  ZINC000464139057    0.0700
     29 C29        -7.3251    1.3015   51.7786 C.3     1  ZINC000464139057    0.0700
     30 H30        -7.0929    1.5491   52.8144 H       1  ZINC000464139057    0.0700
     31 C31        -7.2582   -0.2152   51.5884 C.3     1  ZINC000464139057   -0.1500
     32 O32        -8.6401    1.7660   51.4598 O.3     1  ZINC000464139057   -0.3700
     33 H33        -7.4755    3.2620   53.3331 H       1  ZINC000464139057    0.0600
     34 H34        -8.6515    4.5964   53.2628 H       1  ZINC000464139057    0.0700
     35 H35        -9.1754    2.9746   53.7760 H       1  ZINC000464139057    0.0700
     36 H36        -8.1978    3.7922   49.6895 H       1  ZINC000464139057    0.0800
     37 H37        -7.9243    5.0046   50.9674 H       1  ZINC000464139057    0.1000
     38 H38        -4.1868    3.8922   53.4727 H       1  ZINC000464139057    0.1300
     39 H39        -1.9144    3.0006   53.7742 H       1  ZINC000464139057    0.1300
     40 H40         0.3094    2.7257   52.6878 H       1  ZINC000464139057    0.0800
     41 H41        -0.2349    1.1324   52.1106 H       1  ZINC000464139057    0.0800
     42 H42         0.2462    2.9459   49.9317 H       1  ZINC000464139057    0.4000
     43 H43         2.1421    2.4955   48.6465 H       1  ZINC000464139057    0.4000
     44 H44         4.4021    1.4491   50.0608 H       1  ZINC000464139057    0.0700
     45 H45         3.6171    0.1808   49.0893 H       1  ZINC000464139057    0.0700
     46 H46         4.3027    2.8585   47.8508 H       1  ZINC000464139057    0.0700
     47 H47         5.5434    1.5912   48.0026 H       1  ZINC000464139057    0.0800
     48 H48         2.3697    2.4408   46.5380 H       1  ZINC000464139057    0.1100
     49 H49         2.2095   -0.2012   45.1034 H       1  ZINC000464139057    0.0700
     50 H50         1.2881    1.2727   44.7067 H       1  ZINC000464139057    0.0700
     51 H51         2.6337    1.0721   42.8095 H       1  ZINC000464139057    0.0600
     52 H52         3.6347    2.1313   43.8259 H       1  ZINC000464139057    0.0600
     53 H53         3.8923   -0.8877   43.6948 H       1  ZINC000464139057    0.0600
     54 H54         4.8885    0.2426   42.7676 H       1  ZINC000464139057    0.0600
     55 H55         6.1315   -0.4596   44.7003 H       1  ZINC000464139057    0.0600
     56 H56         5.6681    1.2409   44.9251 H       1  ZINC000464139057    0.0600
     57 H57         5.3390   -0.4967   46.8913 H       1  ZINC000464139057    0.0700
     58 H58         3.8585   -0.9189   45.9918 H       1  ZINC000464139057    0.0700
     59 H59        -1.4972    2.5823   49.5488 H       1  ZINC000464139057    0.1300
     60 H60        -3.7699    3.4658   49.2257 H       1  ZINC000464139057    0.1300
     61 H61        -6.4589    1.6312   49.8280 H       1  ZINC000464139057    0.0800
     62 H62        -5.2983    1.7411   51.1766 H       1  ZINC000464139057    0.1000
     63 H63        -6.2549   -0.5675   51.8281 H       1  ZINC000464139057    0.0800
     64 H64        -7.9796   -0.6964   52.2486 H       1  ZINC000464139057    0.0700
     65 H65        -7.4922   -0.4622   50.5529 H       1  ZINC000464139057    0.0700
@<TRIPOS>BOND
     1     1     2    1
     2     1    33    1
     3     1    34    1
     4     1    35    1
     5     2     3    1
     6     2    32    1
     7     2     4    1
     8     4     5    1
     9     4    36    1
    10     4    37    1
    11     5     6   am
    12     5    28    1
    13     6     7    2
    14     6     8    1
    15     8    27   ar
    16     8     9   ar
    17     9    10   ar
    18     9    38    1
    19    10    11   ar
    20    10    39    1
    21    11    12    1
    22    11    26   ar
    23    12    13    1
    24    12    40    1
    25    12    41    1
    26    13    14   am
    27    13    42    1
    28    14    15    2
    29    14    16   am
    30    16    17    1
    31    16    43    1
    32    17    18    1
    33    17    44    1
    34    17    45    1
    35    18    19    1
    36    18    46    1
    37    18    47    1
    38    19    25    1
    39    19    20    2
    40    20    21    1
    41    20    48    1
    42    21    22    1
    43    21    49    1
    44    21    50    1
    45    22    23    1
    46    22    51    1
    47    22    52    1
    48    23    24    1
    49    23    53    1
    50    23    54    1
    51    24    25    1
    52    24    55    1
    53    24    56    1
    54    25    57    1
    55    25    58    1
    56    26    27   ar
    57    26    59    1
    58    27    60    1
    59    28    29    1
    60    28    61    1
    61    28    62    1
    62    29    30    1
    63    29    31    1
    64    29    32    1
    65    31    63    1
    66    31    64    1
    67    31    65    1
@<TRIPOS>SUBSTRUCTURE
     1 ZINC000464139057        1 TEMP              0 ****  ****    0 ROOT


##########                                Name:    ZINC000461678839
##########                DOCK_Rotatable_Bonds:                   6
##########                         Heavy_Atoms:                  28
##########                    Molecular_Weight:             404.939
##########                DOCK_Rotatable_Bonds:                   6
##########                       Formal_Charge:          -0.0200003
##########                     HBond_Acceptors:                   7
##########                        HBond_Donors:                   0
##########                         Heavy_Atoms:                  28
##########                          Grid_Score:          -33.150047
##########                     Grid_vdw_energy:          -32.334690
##########                      Grid_es_energy:           -0.815357
##########           Internal_energy_repulsive:           25.014629

@<TRIPOS>MOLECULE
ZINC000461678839
 57 60 1 0 0
SMALL
USER_CHARGES


@<TRIPOS>ATOM
      1 C1         -3.1512    2.5859   50.0932 C.3     1  ZINC000461678839   -0.1500
      2 C2         -4.6384    2.4608   50.4300 C.3     1  ZINC000461678839   -0.0900
      3 H3         -5.1432    1.9343   49.6200 H       1  ZINC000461678839    0.0700
      4 C4         -5.2450    3.8755   50.5667 C.3     1  ZINC000461678839   -0.1100
      5 C5         -6.7432    3.7751   50.4593 C.3     1  ZINC000461678839   -0.1200
      6 C6         -7.4324    3.6042   51.8249 C.3     1  ZINC000461678839    0.0600
      7 N7         -6.7320    2.6574   52.7203 N.3     1  ZINC000461678839   -0.4600
      8 C8         -7.5207    2.3303   53.8120 C.2     1  ZINC000461678839    0.3700
      9 N9         -8.3986    1.3571   53.8763 N.2     1  ZINC000461678839   -0.3100
     10 N10        -8.9478    1.3407   55.0382 N.2     1  ZINC000461678839   -0.2500
     11 C11        -8.4571    2.2944   55.7778 C.2     1  ZINC000461678839    0.1700
     12 C12        -8.8392    2.6070   57.2018 C.3     1  ZINC000461678839    0.1500
     13 O13        -8.4510    1.5229   58.0480 O.3     1  ZINC000461678839   -0.3100
     14 C14        -9.2225    0.4046   58.0112 C.ar    1  ZINC000461678839    0.1400
     15 C15        -8.8452   -0.7233   58.7252 C.ar    1  ZINC000461678839   -0.2000
     16 C16        -9.6307   -1.8591   58.6864 C.ar    1  ZINC000461678839   -0.0700
     17 C17       -10.7929   -1.8723   57.9358 C.ar    1  ZINC000461678839   -0.0700
     18 Cl18      -11.7781   -3.3009   57.8882 Cl      1  ZINC000461678839   -0.0700
     19 C19       -11.1712   -0.7481   57.2233 C.ar    1  ZINC000461678839   -0.0700
     20 C20       -10.3914    0.3914   57.2641 C.ar    1  ZINC000461678839   -0.1400
     21 N21        -7.5267    2.9556   55.0247 N.pl3   1  ZINC000461678839   -0.4600
     22 C22        -6.7119    4.1027   55.4324 C.3     1  ZINC000461678839    0.1200
     23 C23        -5.7303    3.6692   56.5230 C.3     1  ZINC000461678839   -0.1400
     24 H24        -6.2004    2.9503   57.1941 H       1  ZINC000461678839    0.0900
     25 C25        -5.2230    4.8986   57.3153 C.3     1  ZINC000461678839   -0.1500
     26 C26        -3.7216    4.5647   57.5065 C.3     1  ZINC000461678839    0.0500
     27 O27        -3.3583    3.9237   56.2648 O.3     1  ZINC000461678839   -0.3700
     28 C28        -4.4573    3.0689   55.8954 C.3     1  ZINC000461678839    0.0400
     29 C29        -6.2578    1.4703   52.0507 C.3     1  ZINC000461678839    0.0700
     30 C30        -4.7846    1.6923   51.6612 C.3     1  ZINC000461678839   -0.1100
     31 H31        -2.7202    1.5915   49.9768 H       1  ZINC000461678839    0.0500
     32 H32        -3.0348    3.1434   49.1638 H       1  ZINC000461678839    0.0500
     33 H33        -2.6392    3.1119   50.8991 H       1  ZINC000461678839    0.0600
     34 H34        -4.9757    4.2962   51.5355 H       1  ZINC000461678839    0.0700
     35 H35        -4.8639    4.5147   49.7703 H       1  ZINC000461678839    0.0700
     36 H36        -7.1226    4.6804   49.9853 H       1  ZINC000461678839    0.0800
     37 H37        -6.9936    2.9208   49.8303 H       1  ZINC000461678839    0.0700
     38 H38        -7.4832    4.5765   52.3150 H       1  ZINC000461678839    0.0700
     39 H39        -8.4482    3.2444   51.6614 H       1  ZINC000461678839    0.0500
     40 H40        -8.3329    3.5174   57.5223 H       1  ZINC000461678839    0.0800
     41 H41        -9.9179    2.7494   57.2654 H       1  ZINC000461678839    0.1000
     42 H42        -7.9377   -0.7137   59.3107 H       1  ZINC000461678839    0.1400
     43 H43        -9.3372   -2.7374   59.2422 H       1  ZINC000461678839    0.1400
     44 H44       -12.0789   -0.7601   56.6382 H       1  ZINC000461678839    0.1400
     45 H45       -10.6869    1.2687   56.7078 H       1  ZINC000461678839    0.1400
     46 H46        -6.1570    4.4782   54.5726 H       1  ZINC000461678839    0.1100
     47 H47        -7.3597    4.8896   55.8185 H       1  ZINC000461678839    0.1000
     48 H48        -5.3473    5.8133   56.7356 H       1  ZINC000461678839    0.0800
     49 H49        -5.7294    4.9775   58.2772 H       1  ZINC000461678839    0.0900
     50 H50        -3.1413    5.4758   57.6522 H       1  ZINC000461678839    0.1000
     51 H51        -3.5839    3.8824   58.3453 H       1  ZINC000461678839    0.0600
     52 H52        -4.2900    2.0629   56.2800 H       1  ZINC000461678839    0.0500
     53 H53        -4.5570    3.0413   54.8103 H       1  ZINC000461678839    0.1100
     54 H54        -6.3360    0.6144   52.7210 H       1  ZINC000461678839    0.0900
     55 H55        -6.8524    1.2916   51.1549 H       1  ZINC000461678839    0.0600
     56 H56        -4.3057    0.7223   51.5280 H       1  ZINC000461678839    0.0700
     57 H57        -4.2824    2.2223   52.4705 H       1  ZINC000461678839    0.0700
@<TRIPOS>BOND
     1     1     2    1
     2     1    31    1
     3     1    32    1
     4     1    33    1
     5     2     3    1
     6     2    30    1
     7     2     4    1
     8     4     5    1
     9     4    34    1
    10     4    35    1
    11     5     6    1
    12     5    36    1
    13     5    37    1
    14     6     7    1
    15     6    38    1
    16     6    39    1
    17     7     8    1
    18     7    29    1
    19     8    21    1
    20     8     9    2
    21     9    10    1
    22    10    11    2
    23    11    12    1
    24    11    21    1
    25    12    13    1
    26    12    40    1
    27    12    41    1
    28    13    14    1
    29    14    20   ar
    30    14    15   ar
    31    15    16   ar
    32    15    42    1
    33    16    17   ar
    34    16    43    1
    35    17    18    1
    36    17    19   ar
    37    19    20   ar
    38    19    44    1
    39    20    45    1
    40    21    22    1
    41    22    23    1
    42    22    46    1
    43    22    47    1
    44    23    24    1
    45    23    28    1
    46    23    25    1
    47    25    26    1
    48    25    48    1
    49    25    49    1
    50    26    27    1
    51    26    50    1
    52    26    51    1
    53    27    28    1
    54    28    52    1
    55    28    53    1
    56    29    30    1
    57    29    54    1
    58    29    55    1
    59    30    56    1
    60    30    57    1
@<TRIPOS>SUBSTRUCTURE
     1 ZINC000461678839        1 TEMP              0 ****  ****    0 ROOT


##########                                Name:    ZINC000668548901
##########                DOCK_Rotatable_Bonds:                   9
##########                         Heavy_Atoms:                  26
##########                    Molecular_Weight:             374.464
##########                DOCK_Rotatable_Bonds:                   9
##########                       Formal_Charge:         3.53903e-07
##########                     HBond_Acceptors:                   8
##########                        HBond_Donors:                   3
##########                         Heavy_Atoms:                  26
##########                          Grid_Score:          -33.128101
##########                     Grid_vdw_energy:          -31.481899
##########                      Grid_es_energy:           -1.646204
##########           Internal_energy_repulsive:            9.587399

@<TRIPOS>MOLECULE
ZINC000668548901
 48 50 1 0 0
SMALL
USER_CHARGES


@<TRIPOS>ATOM
      1 O1         -9.4142    1.7074   55.2425 O.2     1  ZINC000668548901   -0.5700
      2 C2         -8.1987    1.7074   55.2154 C.2     1  ZINC000668548901    0.7100
      3 N3         -7.4992    1.7345   56.3672 N.am    1  ZINC000668548901   -0.6800
      4 C4         -8.1700    1.7681   57.5905 C.ar    1  ZINC000668548901    0.2200
      5 C5         -8.6724    2.9675   58.0980 C.ar    1  ZINC000668548901   -0.1700
      6 C6         -9.3295    2.9633   59.3097 C.ar    1  ZINC000668548901    0.1200
      7 N7         -9.4879    1.8443   59.9918 N.ar    1  ZINC000668548901   -0.4300
      8 C8         -9.0267    0.6839   59.5467 C.ar    1  ZINC000668548901    0.1100
      9 S9         -9.2699   -0.7760   60.5029 S.3     1  ZINC000668548901    0.0900
     10 C10       -10.4532   -1.6765   59.5574 C.ar    1  ZINC000668548901    0.0900
     11 C11       -11.8106   -1.5081   59.8109 C.ar    1  ZINC000668548901   -0.1500
     12 C12       -12.7285   -2.2211   59.0608 C.ar    1  ZINC000668548901   -0.0700
     13 C13       -12.2563   -3.0817   58.0788 C.ar    1  ZINC000668548901   -0.1700
     14 C14       -10.8948   -3.2003   57.8808 C.ar    1  ZINC000668548901    0.1000
     15 N15       -10.0423   -2.5039   58.6079 N.ar    1  ZINC000668548901   -0.4200
     16 C16        -8.3594    0.6063   58.3315 C.ar    1  ZINC000668548901   -0.1800
     17 N17        -7.5509    1.6750   54.0341 N.am    1  ZINC000668548901   -0.7200
     18 C18        -8.3113    1.6455   52.7823 C.3     1  ZINC000668548901    0.1700
     19 H19        -9.2947    2.0870   52.9441 H       1  ZINC000668548901    0.1000
     20 C20        -8.4728    0.1968   52.3175 C.3     1  ZINC000668548901    0.0600
     21 O21        -9.4506   -0.4575   53.1285 O.3     1  ZINC000668548901   -0.5700
     22 C22        -7.5636    2.4440   51.7125 C.3     1  ZINC000668548901   -0.1300
     23 H23        -8.0888    2.3591   50.7612 H       1  ZINC000668548901    0.1000
     24 C24        -6.1419    1.8939   51.5634 C.3     1  ZINC000668548901   -0.1200
     25 C25        -5.3792    2.7493   50.5471 C.3     1  ZINC000668548901   -0.1600
     26 C26        -5.3919    4.2090   51.0088 C.3     1  ZINC000668548901    0.0600
     27 O27        -6.7435    4.6484   51.1573 O.3     1  ZINC000668548901   -0.3800
     28 C28        -7.4934    3.9157   52.1284 C.3     1  ZINC000668548901    0.0700
     29 H29        -6.5294    1.7305   56.3457 H       1  ZINC000668548901    0.4100
     30 H30        -8.5472    3.8884   57.5476 H       1  ZINC000668548901    0.1500
     31 H31        -9.7202    3.8887   59.7066 H       1  ZINC000668548901    0.1600
     32 H32       -12.1432   -0.8302   60.5830 H       1  ZINC000668548901    0.1400
     33 H33       -13.7887   -2.1111   59.2353 H       1  ZINC000668548901    0.1400
     34 H34       -12.9468   -3.6530   57.4762 H       1  ZINC000668548901    0.1400
     35 H35       -10.5232   -3.8688   57.1184 H       1  ZINC000668548901    0.1600
     36 H36        -7.9848   -0.3405   57.9714 H       1  ZINC000668548901    0.1400
     37 H37        -6.5811    1.6710   54.0127 H       1  ZINC000668548901    0.4000
     38 H38        -8.7959    0.1831   51.2766 H       1  ZINC000668548901    0.0500
     39 H39        -7.5187   -0.3224   52.4086 H       1  ZINC000668548901    0.0600
     40 H40        -9.1800   -0.5804   54.0487 H       1  ZINC000668548901    0.3800
     41 H41        -5.6332    1.9319   52.5267 H       1  ZINC000668548901    0.0700
     42 H42        -6.1849    0.8627   51.2128 H       1  ZINC000668548901    0.0700
     43 H43        -4.3494    2.3989   50.4759 H       1  ZINC000668548901    0.0800
     44 H44        -5.8597    2.6715   49.5720 H       1  ZINC000668548901    0.0700
     45 H45        -4.8754    4.2923   51.9651 H       1  ZINC000668548901    0.0500
     46 H46        -4.8873    4.8289   50.2678 H       1  ZINC000668548901    0.1000
     47 H47        -8.5014    4.3251   52.1938 H       1  ZINC000668548901    0.1000
     48 H48        -7.0051    3.9945   53.0997 H       1  ZINC000668548901    0.0500
@<TRIPOS>BOND
     1     1     2    2
     2     2     3   am
     3     2    17   am
     4     3     4    1
     5     3    29    1
     6     4    16   ar
     7     4     5   ar
     8     5     6   ar
     9     5    30    1
    10     6     7   ar
    11     6    31    1
    12     7     8   ar
    13     8     9    1
    14     8    16   ar
    15     9    10    1
    16    10    15   ar
    17    10    11   ar
    18    11    12   ar
    19    11    32    1
    20    12    13   ar
    21    12    33    1
    22    13    14   ar
    23    13    34    1
    24    14    15   ar
    25    14    35    1
    26    16    36    1
    27    17    18    1
    28    17    37    1
    29    18    19    1
    30    18    20    1
    31    18    22    1
    32    20    21    1
    33    20    38    1
    34    20    39    1
    35    21    40    1
    36    22    23    1
    37    22    28    1
    38    22    24    1
    39    24    25    1
    40    24    41    1
    41    24    42    1
    42    25    26    1
    43    25    43    1
    44    25    44    1
    45    26    27    1
    46    26    45    1
    47    26    46    1
    48    27    28    1
    49    28    47    1
    50    28    48    1
@<TRIPOS>SUBSTRUCTURE
     1 ZINC000668548901        1 TEMP              0 ****  ****    0 ROOT


##########                                Name:    ZINC000771225867
##########                DOCK_Rotatable_Bonds:                   9
##########                         Heavy_Atoms:                  23
##########                    Molecular_Weight:             355.802
##########                DOCK_Rotatable_Bonds:                   9
##########                       Formal_Charge:        -3.12924e-07
##########                     HBond_Acceptors:                   9
##########                        HBond_Donors:                   3
##########                         Heavy_Atoms:                  23
##########                          Grid_Score:          -33.094742
##########                     Grid_vdw_energy:          -32.589989
##########                      Grid_es_energy:           -0.504755
##########           Internal_energy_repulsive:            9.897677

@<TRIPOS>MOLECULE
ZINC000771225867
 37 38 1 0 0
SMALL
USER_CHARGES


@<TRIPOS>ATOM
      1 C1         -3.6594    2.7897   49.7020 C.3     1  ZINC000771225867    0.0400
      2 O2         -4.6784    2.0070   50.3276 O.3     1  ZINC000771225867   -0.3600
      3 C3         -5.9249    2.5243   50.3441 C.2     1  ZINC000771225867    0.5500
      4 O4         -6.1396    3.6108   49.8396 O.2     1  ZINC000771225867   -0.4900
      5 C5         -6.9823    1.8031   50.9483 C.2     1  ZINC000771225867   -0.3400
      6 C6         -8.2358    2.2848   51.2217 C.2     1  ZINC000771225867    0.2700
      7 Cl7        -8.7267    3.9085   50.8527 Cl      1  ZINC000771225867    0.0400
      8 N8         -9.0298    1.4101   51.7858 N.2     1  ZINC000771225867   -0.5500
      9 C9         -8.5451    0.2225   52.0118 C.2     1  ZINC000771225867    0.3400
     10 N10        -9.2436   -0.8121   52.5951 N.pl3   1  ZINC000771225867   -0.6700
     11 C11       -10.6866   -0.6889   52.8161 C.3     1  ZINC000771225867    0.1700
     12 C12       -11.0044   -1.0147   54.2527 C.ar    1  ZINC000771225867   -0.0800
     13 C13       -10.6527   -0.1304   55.2555 C.ar    1  ZINC000771225867   -0.1300
     14 C14       -10.9429   -0.4265   56.5747 C.ar    1  ZINC000771225867   -0.0800
     15 C15       -11.5853   -1.6069   56.8937 C.ar    1  ZINC000771225867   -0.2000
     16 C16       -11.9394   -2.4961   55.8891 C.ar    1  ZINC000771225867    0.1300
     17 O17       -12.5719   -3.6580   56.2002 O.3     1  ZINC000771225867   -0.2900
     18 C18       -13.7066   -4.0115   55.4069 C.3     1  ZINC000771225867    0.0400
     19 C19       -14.4128   -5.1852   56.0352 C.2     1  ZINC000771225867    0.5200
     20 N20       -14.9648   -6.1359   55.2554 N.am    1  ZINC000771225867   -0.8500
     21 O21       -14.4844   -5.2744   57.2427 O.2     1  ZINC000771225867   -0.5200
     22 C22       -11.6522   -2.1942   54.5660 C.ar    1  ZINC000771225867   -0.1200
     23 S23        -6.9251    0.1233   51.4766 S.3     1  ZINC000771225867    0.2200
     24 H24        -3.9205    2.9581   48.6573 H       1  ZINC000771225867    0.0600
     25 H25        -3.5720    3.7482   50.2137 H       1  ZINC000771225867    0.0600
     26 H26        -2.7085    2.2599   49.7581 H       1  ZINC000771225867    0.1000
     27 H27        -8.7799   -1.6221   52.8595 H       1  ZINC000771225867    0.4200
     28 H28       -11.0020    0.3312   52.5965 H       1  ZINC000771225867    0.0900
     29 H29       -11.2150   -1.3814   52.1610 H       1  ZINC000771225867    0.0900
     30 H30       -10.1500    0.7928   55.0082 H       1  ZINC000771225867    0.1300
     31 H31       -10.6668    0.2657   57.3564 H       1  ZINC000771225867    0.1300
     32 H32       -11.8114   -1.8378   57.9242 H       1  ZINC000771225867    0.1300
     33 H33       -14.3895   -3.1639   55.3515 H       1  ZINC000771225867    0.1000
     34 H34       -13.3785   -4.2801   54.4027 H       1  ZINC000771225867    0.1000
     35 H35       -15.4183   -6.8919   55.6599 H       1  ZINC000771225867    0.4000
     36 H36       -14.9085   -6.0640   54.2898 H       1  ZINC000771225867    0.4100
     37 H37       -11.9268   -2.8846   53.7822 H       1  ZINC000771225867    0.1400
@<TRIPOS>BOND
     1     1     2    1
     2     1    24    1
     3     1    25    1
     4     1    26    1
     5     2     3    1
     6     3     4    2
     7     3     5    1
     8     5    23    1
     9     5     6    2
    10     6     7    1
    11     6     8    1
    12     8     9    2
    13     9    10    1
    14     9    23    1
    15    10    11    1
    16    10    27    1
    17    11    12    1
    18    11    28    1
    19    11    29    1
    20    12    22   ar
    21    12    13   ar
    22    13    14   ar
    23    13    30    1
    24    14    15   ar
    25    14    31    1
    26    15    16   ar
    27    15    32    1
    28    16    17    1
    29    16    22   ar
    30    17    18    1
    31    18    19    1
    32    18    33    1
    33    18    34    1
    34    19    20   am
    35    19    21    2
    36    20    35    1
    37    20    36    1
    38    22    37    1
@<TRIPOS>SUBSTRUCTURE
     1 ZINC000771225867        1 TEMP              0 ****  ****    0 ROOT


##########                                Name:    ZINC001090961577
##########                DOCK_Rotatable_Bonds:                   9
##########                         Heavy_Atoms:                  24
##########                    Molecular_Weight:             352.458
##########                DOCK_Rotatable_Bonds:                   9
##########                       Formal_Charge:                0.02
##########                     HBond_Acceptors:                   8
##########                        HBond_Donors:                   1
##########                         Heavy_Atoms:                  24
##########                          Grid_Score:          -33.047138
##########                     Grid_vdw_energy:          -32.534782
##########                      Grid_es_energy:           -0.512356
##########           Internal_energy_repulsive:           11.028788

@<TRIPOS>MOLECULE
ZINC001090961577
 48 49 1 0 0
SMALL
USER_CHARGES


@<TRIPOS>ATOM
      1 C1        -11.8423   -3.1452   56.1121 C.3     1  ZINC001090961577   -0.1400
      2 C2        -11.9104   -1.9863   55.1154 C.3     1  ZINC001090961577   -0.0900
      3 S3        -11.5120   -2.5942   53.4533 S.3     1  ZINC001090961577   -0.2700
      4 C4        -11.7281   -1.1210   52.4173 C.3     1  ZINC001090961577   -0.0700
      5 C5        -10.7210   -0.0490   52.8385 C.3     1  ZINC001090961577   -0.1200
      6 C6         -9.4040   -0.2987   52.1500 C.2     1  ZINC001090961577    0.5400
      7 O7         -9.0582   -1.4331   51.8956 O.2     1  ZINC001090961577   -0.5300
      8 N8         -8.6104    0.7384   51.8169 N.am    1  ZINC001090961577   -0.6200
      9 C9         -8.9053    2.1573   52.0650 C.3     1  ZINC001090961577    0.1100
     10 C10        -7.7047    2.9731   51.5411 C.3     1  ZINC001090961577   -0.1100
     11 H11        -7.8967    3.3369   50.5316 H       1  ZINC001090961577    0.0900
     12 C12        -7.3889    4.1370   52.4827 C.3     1  ZINC001090961577   -0.1400
     13 C13        -6.5523    1.9343   51.5403 C.3     1  ZINC001090961577    0.1500
     14 H14        -6.1090    1.8418   52.5318 H       1  ZINC001090961577    0.1200
     15 N15        -5.5353    2.2788   50.5437 N.pl3   1  ZINC001090961577   -0.6700
     16 C16        -4.2259    2.4692   50.9321 C.ar    1  ZINC001090961577    0.5900
     17 N17        -3.9773    2.9691   52.1356 N.ar    1  ZINC001090961577   -0.5700
     18 C18        -2.7385    3.1664   52.5450 C.ar    1  ZINC001090961577    0.2700
     19 C19        -1.6793    2.8395   51.6873 C.ar    1  ZINC001090961577   -0.3000
     20 C20        -0.2794    3.0426   52.1026 C.2     1  ZINC001090961577    0.5300
     21 O21         0.6262    2.7750   51.3379 O.2     1  ZINC001090961577   -0.5100
     22 O22        -0.0041    3.5250   53.3302 O.3     1  ZINC001090961577   -0.3600
     23 C23         1.3590    3.3741   53.8074 C.3     1  ZINC001090961577    0.0400
     24 C24        -1.9857    2.3139   50.4246 C.ar    1  ZINC001090961577    0.2600
     25 N25        -3.2513    2.1421   50.0932 N.ar    1  ZINC001090961577   -0.5700
     26 C26        -7.2998    0.6377   51.1492 C.3     1  ZINC001090961577    0.0900
     27 H27       -12.0816   -2.7800   57.1108 H       1  ZINC001090961577    0.0700
     28 H28       -12.5594   -3.9141   55.8248 H       1  ZINC001090961577    0.0700
     29 H29       -10.8372   -3.5671   56.1107 H       1  ZINC001090961577    0.0700
     30 H30       -12.9154   -1.5645   55.1168 H       1  ZINC001090961577    0.0800
     31 H31       -11.1931   -1.2175   55.4027 H       1  ZINC001090961577    0.0800
     32 H32       -11.5631   -1.3841   51.3725 H       1  ZINC001090961577    0.0900
     33 H33       -12.7407   -0.7362   52.5395 H       1  ZINC001090961577    0.0900
     34 H34       -11.0977    0.9343   52.5566 H       1  ZINC001090961577    0.1000
     35 H35       -10.5794   -0.0878   53.9186 H       1  ZINC001090961577    0.1000
     36 H36        -9.8109    2.4463   51.5319 H       1  ZINC001090961577    0.0800
     37 H37        -9.0314    2.3282   53.1341 H       1  ZINC001090961577    0.0800
     38 H38        -7.1710    3.7501   53.4781 H       1  ZINC001090961577    0.0600
     39 H39        -6.5233    4.6832   52.1077 H       1  ZINC001090961577    0.0600
     40 H40        -8.2473    4.8068   52.5330 H       1  ZINC001090961577    0.0700
     41 H41        -5.7831    2.3729   49.6105 H       1  ZINC001090961577    0.4200
     42 H42        -2.5438    3.5741   53.5259 H       1  ZINC001090961577    0.1800
     43 H43         1.4441    3.8037   54.8056 H       1  ZINC001090961577    0.1100
     44 H44         1.6159    2.3155   53.8442 H       1  ZINC001090961577    0.0700
     45 H45         2.0400    3.8899   53.1305 H       1  ZINC001090961577    0.0700
     46 H46        -1.1978    2.0497   49.7349 H       1  ZINC001090961577    0.1800
     47 H47        -6.7550   -0.2366   51.5056 H       1  ZINC001090961577    0.0900
     48 H48        -7.4334    0.5880   50.0685 H       1  ZINC001090961577    0.0800
@<TRIPOS>BOND
     1     1     2    1
     2     1    27    1
     3     1    28    1
     4     1    29    1
     5     2     3    1
     6     2    30    1
     7     2    31    1
     8     3     4    1
     9     4     5    1
    10     4    32    1
    11     4    33    1
    12     5     6    1
    13     5    34    1
    14     5    35    1
    15     6     7    2
    16     6     8   am
    17     8    26    1
    18     8     9    1
    19     9    10    1
    20     9    36    1
    21     9    37    1
    22    10    11    1
    23    10    12    1
    24    10    13    1
    25    12    38    1
    26    12    39    1
    27    12    40    1
    28    13    14    1
    29    13    15    1
    30    13    26    1
    31    15    16    1
    32    15    41    1
    33    16    25   ar
    34    16    17   ar
    35    17    18   ar
    36    18    19   ar
    37    18    42    1
    38    19    20    1
    39    19    24   ar
    40    20    21    2
    41    20    22    1
    42    22    23    1
    43    23    43    1
    44    23    44    1
    45    23    45    1
    46    24    25   ar
    47    24    46    1
    48    26    47    1
    49    26    48    1
@<TRIPOS>SUBSTRUCTURE
     1 ZINC001090961577        1 TEMP              0 ****  ****    0 ROOT


##########                                Name:    ZINC000892249927
##########                DOCK_Rotatable_Bonds:                   8
##########                         Heavy_Atoms:                  27
##########                    Molecular_Weight:             364.487
##########                DOCK_Rotatable_Bonds:                   8
##########                       Formal_Charge:          -0.0300015
##########                     HBond_Acceptors:                   4
##########                        HBond_Donors:                   1
##########                         Heavy_Atoms:                  27
##########                          Grid_Score:          -33.012131
##########                     Grid_vdw_energy:          -32.565041
##########                      Grid_es_energy:           -0.447091
##########           Internal_energy_repulsive:           14.606867

@<TRIPOS>MOLECULE
ZINC000892249927
 55 58 1 0 0
SMALL
USER_CHARGES


@<TRIPOS>ATOM
      1 O1         -8.9198   -1.1181   51.5757 O.2     1  ZINC000892249927   -0.5300
      2 C2         -9.2176   -0.1785   52.2824 C.2     1  ZINC000892249927    0.5100
      3 C3         -8.1408    0.7184   52.8367 C.3     1  ZINC000892249927   -0.1400
      4 C4         -7.9296    1.9046   51.8937 C.3     1  ZINC000892249927   -0.1000
      5 C5         -6.9307    1.5165   50.8018 C.3     1  ZINC000892249927   -0.0800
      6 C6         -5.6219    2.2234   51.0440 C.ar    1  ZINC000892249927   -0.0900
      7 C7         -4.9001    2.7260   49.9776 C.ar    1  ZINC000892249927   -0.1100
      8 C8         -3.6996    3.3744   50.1998 C.ar    1  ZINC000892249927   -0.1100
      9 C9         -3.2212    3.5207   51.4884 C.ar    1  ZINC000892249927   -0.0500
     10 C10        -1.9123    4.2271   51.7306 C.3     1  ZINC000892249927   -0.1200
     11 C11        -0.6687    3.3596   51.9354 C.3     1  ZINC000892249927   -0.1800
     12 C12        -0.8499    4.1418   50.6329 C.3     1  ZINC000892249927   -0.1700
     13 C13        -3.9438    3.0194   52.5550 C.ar    1  ZINC000892249927   -0.1200
     14 C14        -5.1461    2.3744   52.3330 C.ar    1  ZINC000892249927   -0.1100
     15 N15       -10.5118    0.0670   52.5674 N.am    1  ZINC000892249927   -0.7300
     16 C16       -11.5585   -0.8049   52.0285 C.3     1  ZINC000892249927    0.1400
     17 H17       -11.2252   -1.2339   51.0836 H       1  ZINC000892249927    0.1000
     18 C18       -12.8357    0.0090   51.7995 C.3     1  ZINC000892249927   -0.1700
     19 C19       -13.3386    0.5436   53.1430 C.3     1  ZINC000892249927    0.0600
     20 O20       -13.5645   -0.5499   54.0349 O.3     1  ZINC000892249927   -0.3700
     21 C21       -12.3949   -1.3187   54.3233 C.3     1  ZINC000892249927    0.1400
     22 H22       -11.6360   -0.6737   54.7660 H       1  ZINC000892249927    0.0700
     23 C23       -12.7439   -2.4210   55.2899 C.ar    1  ZINC000892249927   -0.1400
     24 C24       -11.7993   -2.8913   56.1889 C.ar    1  ZINC000892249927   -0.0700
     25 C25       -12.1651   -3.9064   57.0600 C.ar    1  ZINC000892249927   -0.1700
     26 C26       -13.4499   -4.4119   57.0034 C.ar    1  ZINC000892249927    0.1000
     27 N27       -14.3228   -3.9399   56.1346 N.ar    1  ZINC000892249927   -0.4900
     28 C28       -14.0116   -2.9719   55.2952 C.ar    1  ZINC000892249927    0.1300
     29 C29       -11.8526   -1.9294   53.0262 C.3     1  ZINC000892249927   -0.1500
     30 H30        -8.4420    1.0839   53.8185 H       1  ZINC000892249927    0.0900
     31 H31        -7.2111    0.1566   52.9277 H       1  ZINC000892249927    0.0900
     32 H32        -8.8802    2.1786   51.4360 H       1  ZINC000892249927    0.0700
     33 H33        -7.5403    2.7522   52.4577 H       1  ZINC000892249927    0.0700
     34 H34        -6.7706    0.4386   50.8222 H       1  ZINC000892249927    0.0700
     35 H35        -7.3256    1.8069   49.8282 H       1  ZINC000892249927    0.0700
     36 H36        -5.2738    2.6117   48.9707 H       1  ZINC000892249927    0.1200
     37 H37        -3.1352    3.7664   49.3665 H       1  ZINC000892249927    0.1200
     38 H38        -1.9772    5.1560   52.2972 H       1  ZINC000892249927    0.1100
     39 H39         0.0848    3.7177   52.6369 H       1  ZINC000892249927    0.1000
     40 H40        -0.7973    2.2779   51.8949 H       1  ZINC000892249927    0.1000
     41 H41        -1.0976    3.5748   49.7357 H       1  ZINC000892249927    0.1000
     42 H42        -0.2155    5.0145   50.4777 H       1  ZINC000892249927    0.1000
     43 H43        -3.5703    3.1340   53.5618 H       1  ZINC000892249927    0.1200
     44 H44        -5.7106    1.9827   53.1664 H       1  ZINC000892249927    0.1200
     45 H45       -10.7501    0.8208   53.1294 H       1  ZINC000892249927    0.4000
     46 H46       -12.6209    0.8441   51.1326 H       1  ZINC000892249927    0.0800
     47 H47       -13.5987   -0.6284   51.3525 H       1  ZINC000892249927    0.0800
     48 H48       -12.5920    1.2129   53.5704 H       1  ZINC000892249927    0.0500
     49 H49       -14.2709    1.0878   52.9917 H       1  ZINC000892249927    0.1000
     50 H50       -10.8020   -2.4772   56.2101 H       1  ZINC000892249927    0.1300
     51 H51       -11.4546   -4.2972   57.7734 H       1  ZINC000892249927    0.1400
     52 H52       -13.7426   -5.2027   57.6781 H       1  ZINC000892249927    0.1600
     53 H53       -14.7533   -2.6112   54.5977 H       1  ZINC000892249927    0.1600
     54 H54       -12.5953   -2.6063   52.6038 H       1  ZINC000892249927    0.0900
     55 H55       -10.9358   -2.4796   53.2382 H       1  ZINC000892249927    0.0800
@<TRIPOS>BOND
     1     1     2    2
     2     2     3    1
     3     2    15   am
     4     3     4    1
     5     3    30    1
     6     3    31    1
     7     4     5    1
     8     4    32    1
     9     4    33    1
    10     5     6    1
    11     5    34    1
    12     5    35    1
    13     6    14   ar
    14     6     7   ar
    15     7     8   ar
    16     7    36    1
    17     8     9   ar
    18     8    37    1
    19     9    10    1
    20     9    13   ar
    21    10    12    1
    22    10    11    1
    23    10    38    1
    24    11    12    1
    25    11    39    1
    26    11    40    1
    27    12    41    1
    28    12    42    1
    29    13    14   ar
    30    13    43    1
    31    14    44    1
    32    15    16    1
    33    15    45    1
    34    16    17    1
    35    16    29    1
    36    16    18    1
    37    18    19    1
    38    18    46    1
    39    18    47    1
    40    19    20    1
    41    19    48    1
    42    19    49    1
    43    20    21    1
    44    21    22    1
    45    21    23    1
    46    21    29    1
    47    23    28   ar
    48    23    24   ar
    49    24    25   ar
    50    24    50    1
    51    25    26   ar
    52    25    51    1
    53    26    27   ar
    54    26    52    1
    55    27    28   ar
    56    28    53    1
    57    29    54    1
    58    29    55    1
@<TRIPOS>SUBSTRUCTURE
     1 ZINC000892249927        1 TEMP              0 ****  ****    0 ROOT


##########                                Name:    ZINC000182044395
##########                DOCK_Rotatable_Bonds:                   8
##########                         Heavy_Atoms:                  28
##########                    Molecular_Weight:             398.889
##########                DOCK_Rotatable_Bonds:                   8
##########                       Formal_Charge:          -0.0399999
##########                     HBond_Acceptors:                   6
##########                        HBond_Donors:                   2
##########                         Heavy_Atoms:                  28
##########                          Grid_Score:          -33.007656
##########                     Grid_vdw_energy:          -32.872517
##########                      Grid_es_energy:           -0.135140
##########           Internal_energy_repulsive:           22.767214

@<TRIPOS>MOLECULE
ZINC000182044395
 51 53 1 0 0
SMALL
USER_CHARGES


@<TRIPOS>ATOM
      1 C1         -9.5632    0.9412   57.8015 C.3     1  ZINC000182044395   -0.1800
      2 C2        -10.5171    1.5028   56.7452 C.3     1  ZINC000182044395    0.0800
      3 N3        -10.5216    0.6228   55.5740 N.pl3   1  ZINC000182044395   -0.4800
      4 C4         -9.7244    0.9260   54.5412 C.2     1  ZINC000182044395    0.2500
      5 C5         -9.6696    0.1498   53.4021 C.2     1  ZINC000182044395   -0.3500
      6 C6         -8.7799    0.5168   52.2892 C.2     1  ZINC000182044395    0.5900
      7 O7         -8.2160   -0.3508   51.6498 O.2     1  ZINC000182044395   -0.5600
      8 N8         -8.5897    1.8144   51.9783 N.am    1  ZINC000182044395   -0.7200
      9 C9         -7.7038    2.1799   50.8702 C.3     1  ZINC000182044395    0.1100
     10 H10        -7.6633    1.3609   50.1521 H       1  ZINC000182044395    0.0900
     11 C11        -8.2404    3.4362   50.1813 C.3     1  ZINC000182044395   -0.1600
     12 C12        -6.2988    2.4548   51.4100 C.3     1  ZINC000182044395    0.1100
     13 H13        -6.3394    3.2737   52.1283 H       1  ZINC000182044395    0.1100
     14 O14        -5.7976    1.2814   52.0533 O.3     1  ZINC000182044395   -0.5500
     15 C15        -5.3736    2.8369   50.2530 C.3     1  ZINC000182044395   -0.1100
     16 C16        -3.9428    2.8152   50.7257 C.ar    1  ZINC000182044395   -0.0800
     17 C17        -3.6114    3.3627   51.9511 C.ar    1  ZINC000182044395   -0.1000
     18 C18        -2.2989    3.3432   52.3845 C.ar    1  ZINC000182044395   -0.1200
     19 C19        -1.3180    2.7757   51.5930 C.ar    1  ZINC000182044395   -0.1200
     20 C20        -1.6485    2.2326   50.3656 C.ar    1  ZINC000182044395   -0.1200
     21 C21        -2.9617    2.2485   49.9338 C.ar    1  ZINC000182044395   -0.1200
     22 C22       -10.5201   -1.0478   53.3159 C.2     1  ZINC000182044395    0.4400
     23 O23       -10.5119   -1.7628   52.3293 O.2     1  ZINC000182044395   -0.4900
     24 C24       -11.3789   -1.3491   54.4765 C.ar    1  ZINC000182044395   -0.1800
     25 C25       -12.2137   -2.4662   54.4855 C.ar    1  ZINC000182044395   -0.0200
     26 C26       -13.0079   -2.7138   55.5848 C.ar    1  ZINC000182044395   -0.0700
     27 Cl27      -14.0502   -4.1020   55.6032 Cl      1  ZINC000182044395   -0.0500
     28 C28       -12.9771   -1.8577   56.6775 C.ar    1  ZINC000182044395   -0.0500
     29 C29       -12.1565   -0.7511   56.6815 C.ar    1  ZINC000182044395   -0.1600
     30 C30       -11.3464   -0.4815   55.5816 C.ar    1  ZINC000182044395    0.1900
     31 H31        -8.5566    0.8822   57.3873 H       1  ZINC000182044395    0.0700
     32 H32        -9.5598    1.5960   58.6729 H       1  ZINC000182044395    0.0800
     33 H33        -9.8935   -0.0547   58.0965 H       1  ZINC000182044395    0.0700
     34 H34       -10.1867    2.4988   56.4501 H       1  ZINC000182044395    0.1000
     35 H35       -11.5236    1.5617   57.1593 H       1  ZINC000182044395    0.1100
     36 H36        -9.1034    1.8074   54.6025 H       1  ZINC000182044395    0.1800
     37 H37        -9.0395    2.5062   52.4882 H       1  ZINC000182044395    0.4100
     38 H38        -9.2413    3.2403   49.7968 H       1  ZINC000182044395    0.0600
     39 H39        -8.2808    4.2552   50.8994 H       1  ZINC000182044395    0.0600
     40 H40        -7.5811    3.7082   49.3569 H       1  ZINC000182044395    0.0600
     41 H41        -6.3841    0.9255   52.7348 H       1  ZINC000182044395    0.3700
     42 H42        -5.6251    3.8376   49.9017 H       1  ZINC000182044395    0.0800
     43 H43        -5.4978    2.1238   49.4379 H       1  ZINC000182044395    0.0800
     44 H44        -4.3779    3.8057   52.5696 H       1  ZINC000182044395    0.1200
     45 H45        -2.0400    3.7712   53.3417 H       1  ZINC000182044395    0.1200
     46 H46        -0.2925    2.7604   51.9317 H       1  ZINC000182044395    0.1200
     47 H47        -0.8814    1.7932   49.7451 H       1  ZINC000182044395    0.1200
     48 H48        -3.2205    1.8211   48.9763 H       1  ZINC000182044395    0.1200
     49 H49       -12.2379   -3.1331   53.6364 H       1  ZINC000182044395    0.1500
     50 H50       -13.6030   -2.0617   57.5338 H       1  ZINC000182044395    0.1500
     51 H51       -12.1414   -0.0930   57.5376 H       1  ZINC000182044395    0.1500
@<TRIPOS>BOND
     1     1     2    1
     2     1    31    1
     3     1    32    1
     4     1    33    1
     5     2     3    1
     6     2    34    1
     7     2    35    1
     8     3    30    1
     9     3     4    1
    10     4     5    2
    11     4    36    1
    12     5     6    1
    13     5    22    1
    14     6     7    2
    15     6     8   am
    16     8     9    1
    17     8    37    1
    18     9    10    1
    19     9    11    1
    20     9    12    1
    21    11    38    1
    22    11    39    1
    23    11    40    1
    24    12    13    1
    25    12    14    1
    26    12    15    1
    27    14    41    1
    28    15    16    1
    29    15    42    1
    30    15    43    1
    31    16    21   ar
    32    16    17   ar
    33    17    18   ar
    34    17    44    1
    35    18    19   ar
    36    18    45    1
    37    19    20   ar
    38    19    46    1
    39    20    21   ar
    40    20    47    1
    41    21    48    1
    42    22    23    2
    43    22    24    1
    44    24    30   ar
    45    24    25   ar
    46    25    26   ar
    47    25    49    1
    48    26    27    1
    49    26    28   ar
    50    28    29   ar
    51    28    50    1
    52    29    30   ar
    53    29    51    1
@<TRIPOS>SUBSTRUCTURE
     1 ZINC000182044395        1 TEMP              0 ****  ****    0 ROOT


##########                                Name:    ZINC000369046711
##########                DOCK_Rotatable_Bonds:                   8
##########                         Heavy_Atoms:                  26
##########                    Molecular_Weight:             367.467
##########                DOCK_Rotatable_Bonds:                   8
##########                       Formal_Charge:        -7.63685e-07
##########                     HBond_Acceptors:                   8
##########                        HBond_Donors:                   1
##########                         Heavy_Atoms:                  26
##########                          Grid_Score:          -32.931152
##########                     Grid_vdw_energy:          -32.229404
##########                      Grid_es_energy:           -0.701746
##########           Internal_energy_repulsive:           15.040040

@<TRIPOS>MOLECULE
ZINC000369046711
 56 58 1 0 0
SMALL
USER_CHARGES


@<TRIPOS>ATOM
      1 C1        -11.4663   -0.1401   54.0785 C.3     1  ZINC000369046711   -0.1800
      2 C2        -11.7379   -0.9647   52.8187 C.3     1  ZINC000369046711    0.1400
      3 C3        -11.5781   -2.4524   53.1387 C.3     1  ZINC000369046711   -0.1800
      4 C4        -13.1637   -0.6981   52.3322 C.3     1  ZINC000369046711   -0.1400
      5 O5        -10.7941   -0.5888   51.7812 O.3     1  ZINC000369046711   -0.3700
      6 C6         -9.5443   -0.2792   52.1748 C.2     1  ZINC000369046711    0.6500
      7 O7         -8.7239   -1.1601   52.3409 O.2     1  ZINC000369046711   -0.5700
      8 N8         -9.2032    1.0076   52.3846 N.am    1  ZINC000369046711   -0.7100
      9 C9         -7.8427    1.3446   52.8111 C.3     1  ZINC000369046711    0.1800
     10 H10        -7.3856    0.4662   53.2665 H       1  ZINC000369046711    0.0900
     11 C11        -7.9088    2.4659   53.8474 C.3     1  ZINC000369046711   -0.1300
     12 C12        -8.5413    3.6935   53.1813 C.3     1  ZINC000369046711   -0.1200
     13 C13        -7.6160    4.1660   52.0637 C.3     1  ZINC000369046711   -0.1200
     14 C14        -7.4632    3.0910   50.9856 C.3     1  ZINC000369046711   -0.1000
     15 H15        -8.3556    3.0030   50.3660 H       1  ZINC000369046711    0.0900
     16 C16        -6.2055    3.4738   50.1584 C.3     1  ZINC000369046711    0.0400
     17 N17        -5.0566    2.7872   50.7806 N.3     1  ZINC000369046711   -0.5200
     18 C18        -4.0367    3.7526   51.2116 C.3     1  ZINC000369046711    0.1200
     19 C19        -2.6807    3.0957   51.1866 C.2     1  ZINC000369046711    0.2900
     20 N20        -2.1559    2.4551   50.1737 N.2     1  ZINC000369046711   -0.5400
     21 C21        -0.9460    2.0040   50.5022 C.2     1  ZINC000369046711    0.2000
     22 N22        -0.6829    2.3529   51.7341 N.2     1  ZINC000369046711   -0.3200
     23 N23        -1.7968    3.0706   52.1992 N.pl3   1  ZINC000369046711   -0.3700
     24 C24        -1.9661    3.6654   53.5273 C.3     1  ZINC000369046711    0.1000
     25 C25        -0.5987    4.0652   54.0851 C.3     1  ZINC000369046711    0.0500
     26 F26        -0.7604    4.6343   55.3528 F       1  ZINC000369046711   -0.2000
     27 C27        -5.5493    1.9873   51.9272 C.3     1  ZINC000369046711    0.0500
     28 C28        -7.0353    1.7490   51.6041 C.3     1  ZINC000369046711   -0.1000
     29 H29        -7.1170    0.9660   50.8502 H       1  ZINC000369046711    0.0900
     30 H30       -10.4505   -0.3300   54.4251 H       1  ZINC000369046711    0.0900
     31 H31       -11.5801    0.9197   53.8505 H       1  ZINC000369046711    0.0600
     32 H32       -12.1747   -0.4224   54.8572 H       1  ZINC000369046711    0.0700
     33 H33       -12.2865   -2.7347   53.9174 H       1  ZINC000369046711    0.0700
     34 H34       -11.7716   -3.0399   52.2411 H       1  ZINC000369046711    0.0600
     35 H35       -10.5623   -2.6423   53.4853 H       1  ZINC000369046711    0.0900
     36 H36       -13.2776    0.3618   52.1042 H       1  ZINC000369046711    0.0700
     37 H37       -13.3572   -1.2856   51.4346 H       1  ZINC000369046711    0.0700
     38 H38       -13.8721   -0.9804   53.1109 H       1  ZINC000369046711    0.0800
     39 H39        -9.8584    1.7107   52.2532 H       1  ZINC000369046711    0.4000
     40 H40        -8.5198    2.1501   54.6930 H       1  ZINC000369046711    0.0700
     41 H41        -6.9033    2.7101   54.1901 H       1  ZINC000369046711    0.0800
     42 H42        -9.5124    3.4258   52.7651 H       1  ZINC000369046711    0.0600
     43 H43        -8.6634    4.4883   53.9173 H       1  ZINC000369046711    0.0700
     44 H44        -8.0302    5.0680   51.6134 H       1  ZINC000369046711    0.0700
     45 H45        -6.6360    4.3939   52.4830 H       1  ZINC000369046711    0.0600
     46 H46        -6.3232    3.1421   49.1268 H       1  ZINC000369046711    0.0800
     47 H47        -6.0548    4.5530   50.1879 H       1  ZINC000369046711    0.0800
     48 H48        -4.0383    4.6085   50.5367 H       1  ZINC000369046711    0.0800
     49 H49        -4.2593    4.0882   52.2244 H       1  ZINC000369046711    0.1000
     50 H50        -0.2892    1.4409   49.8556 H       1  ZINC000369046711    0.2200
     51 H51        -2.6001    4.5489   53.4515 H       1  ZINC000369046711    0.1200
     52 H52        -2.4323    2.9397   54.1936 H       1  ZINC000369046711    0.1100
     53 H53         0.0350    3.1817   54.1616 H       1  ZINC000369046711    0.0900
     54 H54        -0.1321    4.7903   53.4182 H       1  ZINC000369046711    0.0800
     55 H55        -5.0141    1.0399   51.9902 H       1  ZINC000369046711    0.0900
     56 H56        -5.4463    2.5479   52.8563 H       1  ZINC000369046711    0.0600
@<TRIPOS>BOND
     1     1     2    1
     2     1    30    1
     3     1    31    1
     4     1    32    1
     5     2     3    1
     6     2     4    1
     7     2     5    1
     8     3    33    1
     9     3    34    1
    10     3    35    1
    11     4    36    1
    12     4    37    1
    13     4    38    1
    14     5     6    1
    15     6     7    2
    16     6     8   am
    17     8     9    1
    18     8    39    1
    19     9    10    1
    20     9    28    1
    21     9    11    1
    22    11    12    1
    23    11    40    1
    24    11    41    1
    25    12    13    1
    26    12    42    1
    27    12    43    1
    28    13    14    1
    29    13    44    1
    30    13    45    1
    31    14    15    1
    32    14    28    1
    33    14    16    1
    34    16    17    1
    35    16    46    1
    36    16    47    1
    37    17    18    1
    38    17    27    1
    39    18    19    1
    40    18    48    1
    41    18    49    1
    42    19    23    1
    43    19    20    2
    44    20    21    1
    45    21    22    2
    46    21    50    1
    47    22    23    1
    48    23    24    1
    49    24    25    1
    50    24    51    1
    51    24    52    1
    52    25    26    1
    53    25    53    1
    54    25    54    1
    55    27    28    1
    56    27    55    1
    57    27    56    1
    58    28    29    1
@<TRIPOS>SUBSTRUCTURE
     1 ZINC000369046711        1 TEMP              0 ****  ****    0 ROOT


##########                                Name:    ZINC000772422035
##########                DOCK_Rotatable_Bonds:                  10
##########                         Heavy_Atoms:                  25
##########                    Molecular_Weight:             348.399
##########                DOCK_Rotatable_Bonds:                  10
##########                       Formal_Charge:          0.00999987
##########                     HBond_Acceptors:                   7
##########                        HBond_Donors:                   0
##########                         Heavy_Atoms:                  25
##########                          Grid_Score:          -32.928299
##########                     Grid_vdw_energy:          -32.448341
##########                      Grid_es_energy:           -0.479959
##########           Internal_energy_repulsive:           16.110701

@<TRIPOS>MOLECULE
ZINC000772422035
 49 50 1 0 0
SMALL
USER_CHARGES


@<TRIPOS>ATOM
      1 C1         -2.4614    3.2601   52.1389 C.3     1  ZINC000772422035    0.0300
      2 O2         -2.7185    3.5395   50.7613 O.3     1  ZINC000772422035   -0.3900
      3 C3         -4.0967    3.4445   50.3962 C.3     1  ZINC000772422035    0.0600
      4 C4         -4.6004    2.0262   50.6706 C.3     1  ZINC000772422035    0.0700
      5 O5         -5.9810    1.9336   50.3138 O.3     1  ZINC000772422035   -0.3000
      6 C6         -6.8274    1.4367   51.2506 C.ar    1  ZINC000772422035    0.3300
      7 C7         -6.9937    2.1103   52.4536 C.ar    1  ZINC000772422035   -0.1700
      8 C8         -7.8602    1.5929   53.4010 C.ar    1  ZINC000772422035   -0.0200
      9 C9         -8.0690    2.2935   54.7188 C.3     1  ZINC000772422035    0.1100
     10 O10        -8.5924    1.3503   55.6908 O.3     1  ZINC000772422035   -0.3500
     11 C11        -8.9104    1.8360   56.9011 C.2     1  ZINC000772422035    0.4700
     12 O12        -9.0741    3.0236   57.0515 O.2     1  ZINC000772422035   -0.5000
     13 C13        -9.0631    0.8999   58.0721 C.3     1  ZINC000772422035   -0.1100
     14 C14       -10.4867    0.3395   58.0948 C.3     1  ZINC000772422035    0.0000
     15 H15       -10.9445    0.4712   57.1144 H       1  ZINC000772422035    0.1000
     16 C16       -11.3112    1.0838   59.1470 C.3     1  ZINC000772422035   -0.1500
     17 C17       -10.4435   -1.1277   58.4360 C.2     1  ZINC000772422035   -0.2000
     18 C18       -10.0225   -1.7042   59.5871 C.2     1  ZINC000772422035   -0.0200
     19 C19        -9.4920   -0.9984   60.8083 C.3     1  ZINC000772422035   -0.0800
     20 O20       -10.1709   -3.0266   59.4255 O.3     1  ZINC000772422035    0.1000
     21 N21       -10.6212   -3.2935   58.3356 N.2     1  ZINC000772422035   -0.3600
     22 C22       -10.8389   -2.2207   57.6311 C.2     1  ZINC000772422035    0.0300
     23 C23       -11.3934   -2.1569   56.2313 C.3     1  ZINC000772422035   -0.0800
     24 C24        -8.5326    0.4143   53.1094 C.ar    1  ZINC000772422035   -0.1900
     25 C25        -8.3188   -0.2021   51.8924 C.ar    1  ZINC000772422035    0.1400
     26 N26        -7.4904    0.3183   51.0071 N.ar    1  ZINC000772422035   -0.5300
     27 H27        -1.3933    3.3532   52.3355 H       1  ZINC000772422035    0.0900
     28 H28        -3.0086    3.9680   52.7614 H       1  ZINC000772422035    0.0400
     29 H29        -2.7863    2.2457   52.3706 H       1  ZINC000772422035    0.0400
     30 H30        -4.6779    4.1563   50.9825 H       1  ZINC000772422035    0.0600
     31 H31        -4.2081    3.6709   49.3357 H       1  ZINC000772422035    0.0700
     32 H32        -4.0238    1.3150   50.0791 H       1  ZINC000772422035    0.0800
     33 H33        -4.4827    1.7974   51.7298 H       1  ZINC000772422035    0.0800
     34 H34        -6.4538    3.0253   52.6476 H       1  ZINC000772422035    0.1400
     35 H35        -7.1181    2.6909   55.0737 H       1  ZINC000772422035    0.0900
     36 H36        -8.7780    3.1109   54.5873 H       1  ZINC000772422035    0.0900
     37 H37        -8.3513    0.0800   57.9772 H       1  ZINC000772422035    0.1100
     38 H38        -8.8714    1.4421   58.9981 H       1  ZINC000772422035    0.1100
     39 H39       -10.7876    1.0596   60.1026 H       1  ZINC000772422035    0.0600
     40 H40       -11.4495    2.1189   58.8346 H       1  ZINC000772422035    0.0800
     41 H41       -12.2838    0.6033   59.2530 H       1  ZINC000772422035    0.0600
     42 H42       -10.3252   -0.6856   61.4377 H       1  ZINC000772422035    0.0900
     43 H43        -8.8478   -1.6761   61.3685 H       1  ZINC000772422035    0.0900
     44 H44        -8.9194   -0.1230   60.5019 H       1  ZINC000772422035    0.0900
     45 H45       -12.4720   -2.0064   56.2742 H       1  ZINC000772422035    0.0800
     46 H46       -10.9318   -1.3278   55.6950 H       1  ZINC000772422035    0.0800
     47 H47       -11.1772   -3.0907   55.7119 H       1  ZINC000772422035    0.0800
     48 H48        -9.2155   -0.0163   53.8268 H       1  ZINC000772422035    0.1400
     49 H49        -8.8396   -1.1194   51.6605 H       1  ZINC000772422035    0.1700
@<TRIPOS>BOND
     1     1     2    1
     2     1    27    1
     3     1    28    1
     4     1    29    1
     5     2     3    1
     6     3     4    1
     7     3    30    1
     8     3    31    1
     9     4     5    1
    10     4    32    1
    11     4    33    1
    12     5     6    1
    13     6    26   ar
    14     6     7   ar
    15     7     8   ar
    16     7    34    1
    17     8     9    1
    18     8    24   ar
    19     9    10    1
    20     9    35    1
    21     9    36    1
    22    10    11    1
    23    11    12    2
    24    11    13    1
    25    13    14    1
    26    13    37    1
    27    13    38    1
    28    14    15    1
    29    14    16    1
    30    14    17    1
    31    16    39    1
    32    16    40    1
    33    16    41    1
    34    17    22    1
    35    17    18    2
    36    18    19    1
    37    18    20    1
    38    19    42    1
    39    19    43    1
    40    19    44    1
    41    20    21    1
    42    21    22    2
    43    22    23    1
    44    23    45    1
    45    23    46    1
    46    23    47    1
    47    24    25   ar
    48    24    48    1
    49    25    26   ar
    50    25    49    1
@<TRIPOS>SUBSTRUCTURE
     1 ZINC000772422035        1 TEMP              0 ****  ****    0 ROOT


##########                                Name:    ZINC000163855860
##########                DOCK_Rotatable_Bonds:                   6
##########                         Heavy_Atoms:                  28
##########                    Molecular_Weight:             398.483
##########                DOCK_Rotatable_Bonds:                   6
##########                       Formal_Charge:          -0.0100004
##########                     HBond_Acceptors:                   7
##########                        HBond_Donors:                   1
##########                         Heavy_Atoms:                  28
##########                          Grid_Score:          -32.917454
##########                     Grid_vdw_energy:          -32.420879
##########                      Grid_es_energy:           -0.496574
##########           Internal_energy_repulsive:           15.125559

@<TRIPOS>MOLECULE
ZINC000163855860
 50 53 1 0 0
SMALL
USER_CHARGES


@<TRIPOS>ATOM
      1 C1        -10.5948    0.7970   55.3670 C.3     1  ZINC000163855860   -0.1300
      2 C2        -10.8304   -0.3810   54.4570 C.ar    1  ZINC000163855860   -0.0600
      3 C3        -10.4518   -0.3175   53.1253 C.ar    1  ZINC000163855860    0.1400
      4 N4         -9.8491    0.8417   52.6236 N.am    1  ZINC000163855860   -0.6700
      5 C5         -8.5340    0.8439   52.3285 C.2     1  ZINC000163855860    0.5100
      6 O6         -7.8730   -0.1588   52.4976 O.2     1  ZINC000163855860   -0.5100
      7 C7         -7.8851    2.0921   51.7883 C.3     1  ZINC000163855860   -0.1300
      8 C8         -6.8003    1.7076   50.7803 C.3     1  ZINC000163855860   -0.1100
      9 H9         -7.1486    0.9165   50.1162 H       1  ZINC000163855860    0.1100
     10 C10        -6.3378    2.9413   49.9718 C.3     1  ZINC000163855860    0.0600
     11 O11        -4.9134    2.7189   49.7519 O.3     1  ZINC000163855860   -0.3500
     12 C12        -4.3972    2.0212   50.7738 C.2     1  ZINC000163855860    0.4800
     13 O13        -3.2260    1.9841   51.0682 O.2     1  ZINC000163855860   -0.4500
     14 C14        -5.5014    1.2871   51.5032 C.3     1  ZINC000163855860   -0.1800
     15 C15       -10.6654   -1.4073   52.2893 C.ar    1  ZINC000163855860   -0.1100
     16 C16       -11.2593   -2.5547   52.7801 C.ar    1  ZINC000163855860   -0.1100
     17 C17       -11.6443   -2.6262   54.1037 C.ar    1  ZINC000163855860   -0.1000
     18 C18       -11.4346   -1.5371   54.9511 C.ar    1  ZINC000163855860   -0.1100
     19 C19       -11.8456   -1.6112   56.3696 C.2     1  ZINC000163855860    0.5700
     20 O20       -11.0561   -1.9913   57.2120 O.2     1  ZINC000163855860   -0.5300
     21 N21       -13.0955   -1.2573   56.7284 N.am    1  ZINC000163855860   -0.6100
     22 C22       -14.0663   -0.7947   55.7252 C.3     1  ZINC000163855860    0.1200
     23 C23       -15.2141   -1.8143   55.6579 C.3     1  ZINC000163855860   -0.0600
     24 C24       -15.6382   -2.1744   57.0659 C.2     1  ZINC000163855860   -0.1700
     25 C25       -14.9011   -1.9671   58.1735 C.2     1  ZINC000163855860   -0.1300
     26 C26       -15.5147   -2.3983   59.3453 C.2     1  ZINC000163855860   -0.1200
     27 C27       -16.7206   -2.9378   59.1985 C.2     1  ZINC000163855860   -0.2100
     28 S28       -17.1657   -2.9320   57.4987 S.3     1  ZINC000163855860    0.1100
     29 C29       -13.5225   -1.3177   58.1334 C.3     1  ZINC000163855860    0.1700
     30 H30       -11.4964    1.4080   55.4110 H       1  ZINC000163855860    0.0700
     31 H31       -10.3485    0.4401   56.3670 H       1  ZINC000163855860    0.0900
     32 H32        -9.7691    1.3948   54.9809 H       1  ZINC000163855860    0.0700
     33 H33       -10.3779    1.6436   52.4883 H       1  ZINC000163855860    0.4100
     34 H34        -7.4366    2.6526   52.6087 H       1  ZINC000163855860    0.1100
     35 H35        -8.6370    2.7084   51.2956 H       1  ZINC000163855860    0.1100
     36 H36        -6.4964    3.8540   50.5461 H       1  ZINC000163855860    0.0800
     37 H37        -6.8664    2.9926   49.0200 H       1  ZINC000163855860    0.1200
     38 H38        -5.3559    0.2096   51.4260 H       1  ZINC000163855860    0.1200
     39 H39        -5.5334    1.5924   52.5491 H       1  ZINC000163855860    0.1200
     40 H40       -10.3659   -1.3573   51.2529 H       1  ZINC000163855860    0.1500
     41 H41       -11.4223   -3.3983   52.1259 H       1  ZINC000163855860    0.1300
     42 H42       -12.1082   -3.5245   54.4834 H       1  ZINC000163855860    0.1300
     43 H43       -14.4567    0.1805   56.0160 H       1  ZINC000163855860    0.0800
     44 H44       -13.5806   -0.7221   54.7520 H       1  ZINC000163855860    0.1000
     45 H45       -14.8774   -2.7112   55.1380 H       1  ZINC000163855860    0.0900
     46 H46       -16.0580   -1.3782   55.1233 H       1  ZINC000163855860    0.0900
     47 H47       -15.0418   -2.3013   60.3114 H       1  ZINC000163855860    0.1400
     48 H48       -17.3335   -3.3205   60.0013 H       1  ZINC000163855860    0.1700
     49 H49       -12.8158   -1.9159   58.7086 H       1  ZINC000163855860    0.1000
     50 H50       -13.5757   -0.3106   58.5469 H       1  ZINC000163855860    0.0900
@<TRIPOS>BOND
     1     1     2    1
     2     1    30    1
     3     1    31    1
     4     1    32    1
     5     2    18   ar
     6     2     3   ar
     7     3     4    1
     8     3    15   ar
     9     4     5   am
    10     4    33    1
    11     5     6    2
    12     5     7    1
    13     7     8    1
    14     7    34    1
    15     7    35    1
    16     8     9    1
    17     8    14    1
    18     8    10    1
    19    10    11    1
    20    10    36    1
    21    10    37    1
    22    11    12    1
    23    12    13    2
    24    12    14    1
    25    14    38    1
    26    14    39    1
    27    15    16   ar
    28    15    40    1
    29    16    17   ar
    30    16    41    1
    31    17    18   ar
    32    17    42    1
    33    18    19    1
    34    19    20    2
    35    19    21   am
    36    21    29    1
    37    21    22    1
    38    22    23    1
    39    22    43    1
    40    22    44    1
    41    23    24    1
    42    23    45    1
    43    23    46    1
    44    24    28    1
    45    24    25    2
    46    25    26    1
    47    25    29    1
    48    26    27    2
    49    26    47    1
    50    27    28    1
    51    27    48    1
    52    29    49    1
    53    29    50    1
@<TRIPOS>SUBSTRUCTURE
     1 ZINC000163855860        1 TEMP              0 ****  ****    0 ROOT


##########                                Name:    ZINC000269356812
##########                DOCK_Rotatable_Bonds:                  10
##########                         Heavy_Atoms:                  25
##########                    Molecular_Weight:             387.431
##########                DOCK_Rotatable_Bonds:                  10
##########                       Formal_Charge:          0.00999978
##########                     HBond_Acceptors:                  10
##########                        HBond_Donors:                   3
##########                         Heavy_Atoms:                  25
##########                          Grid_Score:          -32.912445
##########                     Grid_vdw_energy:          -30.213121
##########                      Grid_es_energy:           -2.699324
##########           Internal_energy_repulsive:            7.344344

@<TRIPOS>MOLECULE
ZINC000269356812
 40 41 1 0 0
SMALL
USER_CHARGES


@<TRIPOS>ATOM
      1 C1          0.7452    0.3487   62.5454 C.3     1  ZINC000269356812   -0.1400
      2 C2          0.2097    0.3279   61.1123 C.3     1  ZINC000269356812    0.2000
      3 O3         -0.2812   -0.9787   60.8062 O.3     1  ZINC000269356812   -0.5400
      4 C4         -0.9263    1.3439   60.9776 C.3     1  ZINC000269356812    0.0900
      5 N5         -1.4868    1.2735   59.6260 N.am    1  ZINC000269356812   -0.6900
      6 C6         -2.0512    2.3652   59.0727 C.2     1  ZINC000269356812    0.5100
      7 O7         -2.0964    3.4063   59.6949 O.2     1  ZINC000269356812   -0.5100
      8 C8         -2.6210    2.2939   57.6943 C.2     1  ZINC000269356812    0.5100
      9 O9         -2.4902    1.2829   57.0351 O.2     1  ZINC000269356812   -0.4900
     10 N10        -3.2802    3.3519   57.1820 N.am    1  ZINC000269356812   -0.6400
     11 C11        -3.8141    3.2850   55.8904 C.ar    1  ZINC000269356812    0.0900
     12 C12        -5.1948    3.2389   55.6989 C.ar    1  ZINC000269356812   -0.0600
     13 C13        -5.6784    3.1740   54.4056 C.ar    1  ZINC000269356812   -0.1200
     14 C14        -4.7780    3.1567   53.3447 C.ar    1  ZINC000269356812    0.1000
     15 S15        -5.3813    3.0748   51.6912 S.3     1  ZINC000269356812   -0.0600
     16 C16        -3.8708    2.8285   50.7174 C.3     1  ZINC000269356812    0.2900
     17 F17        -4.2073    2.3394   49.4506 F       1  ZINC000269356812   -0.1700
     18 F18        -3.1985    4.0480   50.5830 F       1  ZINC000269356812   -0.1700
     19 N19        -3.4725    3.2019   53.5639 N.ar    1  ZINC000269356812   -0.4600
     20 C20        -2.9766    3.2697   54.7843 C.ar    1  ZINC000269356812    0.1100
     21 C21         1.3187    0.6846   60.1564 C.2     1  ZINC000269356812   -0.2300
     22 C22         1.6708    1.9253   59.8157 C.2     1  ZINC000269356812   -0.1100
     23 C23         2.7219    2.0078   58.9187 C.2     1  ZINC000269356812   -0.1400
     24 C24         3.2235    0.8341   58.5311 C.2     1  ZINC000269356812   -0.2000
     25 S25         2.3518   -0.4710   59.3253 S.3     1  ZINC000269356812    0.1100
     26 H26         1.5545   -0.3752   62.6414 H       1  ZINC000269356812    0.0800
     27 H27         1.1197    1.3454   62.7789 H       1  ZINC000269356812    0.0800
     28 H28        -0.0569    0.0906   63.2369 H       1  ZINC000269356812    0.0700
     29 H29        -0.5795   -1.0827   59.8922 H       1  ZINC000269356812    0.3800
     30 H30        -1.7048    1.1172   61.7061 H       1  ZINC000269356812    0.0900
     31 H31        -0.5400    2.3469   61.1590 H       1  ZINC000269356812    0.0900
     32 H32        -1.4518    0.4411   59.1292 H       1  ZINC000269356812    0.4200
     33 H33        -3.3846    4.1598   57.7088 H       1  ZINC000269356812    0.4300
     34 H34        -5.8704    3.2534   56.5414 H       1  ZINC000269356812    0.1600
     35 H35        -6.7419    3.1366   54.2207 H       1  ZINC000269356812    0.1500
     36 H36        -3.2248    2.1113   51.2239 H       1  ZINC000269356812    0.1500
     37 H37        -1.9063    3.3049   54.9245 H       1  ZINC000269356812    0.1700
     38 H38         1.1732    2.7993   60.2093 H       1  ZINC000269356812    0.1500
     39 H39         3.1065    2.9510   58.5597 H       1  ZINC000269356812    0.1400
     40 H40         4.0420    0.7051   57.8385 H       1  ZINC000269356812    0.1700
@<TRIPOS>BOND
     1     1     2    1
     2     1    26    1
     3     1    27    1
     4     1    28    1
     5     2     3    1
     6     2     4    1
     7     2    21    1
     8     3    29    1
     9     4     5    1
    10     4    30    1
    11     4    31    1
    12     5     6   am
    13     5    32    1
    14     6     7    2
    15     6     8    1
    16     8     9    2
    17     8    10   am
    18    10    11    1
    19    10    33    1
    20    11    20   ar
    21    11    12   ar
    22    12    13   ar
    23    12    34    1
    24    13    14   ar
    25    13    35    1
    26    14    15    1
    27    14    19   ar
    28    15    16    1
    29    16    17    1
    30    16    18    1
    31    16    36    1
    32    19    20   ar
    33    20    37    1
    34    21    25    1
    35    21    22    2
    36    22    23    1
    37    22    38    1
    38    23    24    2
    39    23    39    1
    40    24    25    1
    41    24    40    1
@<TRIPOS>SUBSTRUCTURE
     1 ZINC000269356812        1 TEMP              0 ****  ****    0 ROOT


##########                                Name:    ZINC000474368324
##########                DOCK_Rotatable_Bonds:                   9
##########                         Heavy_Atoms:                  27
##########                    Molecular_Weight:             417.332
##########                DOCK_Rotatable_Bonds:                   9
##########                       Formal_Charge:        -1.63913e-07
##########                     HBond_Acceptors:                   8
##########                        HBond_Donors:                   1
##########                         Heavy_Atoms:                  27
##########                          Grid_Score:          -32.896553
##########                     Grid_vdw_energy:          -32.401859
##########                      Grid_es_energy:           -0.494695
##########           Internal_energy_repulsive:           24.752289

@<TRIPOS>MOLECULE
ZINC000474368324
 53 54 1 0 0
SMALL
USER_CHARGES


@<TRIPOS>ATOM
      1 C1         -1.9757    2.7858   50.2387 C.3     1  ZINC000474368324   -0.1500
      2 C2         -2.9730    2.7235   51.3973 C.3     1  ZINC000474368324    0.0600
      3 O3         -4.0839    3.6192   51.1284 O.3     1  ZINC000474368324   -0.3300
      4 C4         -5.1441    3.5381   51.9476 C.2     1  ZINC000474368324    0.4700
      5 O5         -5.0906    4.0195   53.0545 O.2     1  ZINC000474368324   -0.5100
      6 C6         -6.4012    2.8465   51.4867 C.3     1  ZINC000474368324   -0.0400
      7 C7         -6.8872    3.4867   50.1848 C.3     1  ZINC000474368324    0.0600
      8 O8         -7.0870    4.8870   50.3882 O.3     1  ZINC000474368324   -0.3700
      9 C9         -8.4113    5.3343   50.0913 C.3     1  ZINC000474368324    0.0300
     10 C10        -6.1086    1.3635   51.2469 C.3     1  ZINC000474368324   -0.1200
     11 C11        -7.3797    0.6709   50.7454 C.3     1  ZINC000474368324    0.1100
     12 N12        -8.4654    0.9247   51.7022 N.am    1  ZINC000474368324   -0.6300
     13 C13        -9.1682   -0.0968   52.2303 C.2     1  ZINC000474368324    0.7100
     14 O14        -8.9061   -1.2418   51.9160 O.2     1  ZINC000474368324   -0.5800
     15 N15       -10.1616    0.1506   53.1069 N.am    1  ZINC000474368324   -0.7400
     16 C16       -10.9255   -0.9597   53.6810 C.3     1  ZINC000474368324    0.2000
     17 H17       -10.2985   -1.8505   53.7197 H       1  ZINC000474368324    0.1100
     18 C18       -12.1532   -1.2376   52.8112 C.3     1  ZINC000474368324   -0.1600
     19 C19       -11.3691   -0.5968   55.0748 C.ar    1  ZINC000474368324   -0.0700
     20 C20       -11.6661    0.7167   55.3853 C.ar    1  ZINC000474368324   -0.1000
     21 C21       -12.0736    1.0506   56.6637 C.ar    1  ZINC000474368324   -0.0900
     22 C22       -12.1844    0.0711   57.6324 C.ar    1  ZINC000474368324   -0.1000
     23 C23       -11.8874   -1.2443   57.3233 C.ar    1  ZINC000474368324   -0.0300
     24 Cl24      -12.0264   -2.4750   58.5397 Cl      1  ZINC000474368324   -0.0400
     25 C25       -11.4845   -1.5793   56.0418 C.ar    1  ZINC000474368324   -0.0300
     26 Cl26      -11.1121   -3.2296   55.6521 Cl      1  ZINC000474368324   -0.0400
     27 C27        -8.7702    2.3135   52.0728 C.3     1  ZINC000474368324    0.1300
     28 C28        -7.4835    2.9877   52.5594 C.3     1  ZINC000474368324   -0.1200
     29 H29        -1.1419    2.1135   50.4406 H       1  ZINC000474368324    0.0800
     30 H30        -2.4712    2.4833   49.3162 H       1  ZINC000474368324    0.0700
     31 H31        -1.6036    3.8050   50.1340 H       1  ZINC000474368324    0.0700
     32 H32        -3.3452    1.7044   51.5020 H       1  ZINC000474368324    0.0700
     33 H33        -2.4776    3.0260   52.3198 H       1  ZINC000474368324    0.0700
     34 H34        -6.1409    3.3357   49.4049 H       1  ZINC000474368324    0.0700
     35 H35        -7.8275    3.0258   49.8821 H       1  ZINC000474368324    0.0600
     36 H36        -8.6397    5.1253   49.0462 H       1  ZINC000474368324    0.0400
     37 H37        -9.1231    4.8117   50.7303 H       1  ZINC000474368324    0.0400
     38 H38        -8.4813    6.4071   50.2710 H       1  ZINC000474368324    0.0900
     39 H39        -5.3213    1.2642   50.4997 H       1  ZINC000474368324    0.1000
     40 H40        -5.7861    0.9009   52.1796 H       1  ZINC000474368324    0.0800
     41 H41        -7.6526    1.0706   49.7687 H       1  ZINC000474368324    0.0800
     42 H42        -7.2048   -0.4021   50.6676 H       1  ZINC000474368324    0.0800
     43 H43       -10.3706    1.0641   53.3578 H       1  ZINC000474368324    0.3900
     44 H44       -12.7802   -0.3468   52.7725 H       1  ZINC000474368324    0.0600
     45 H45       -11.8324   -1.5001   51.8031 H       1  ZINC000474368324    0.0700
     46 H46       -12.7216   -2.0638   53.2383 H       1  ZINC000474368324    0.0700
     47 H47       -11.5796    1.4829   54.6291 H       1  ZINC000474368324    0.1300
     48 H48       -12.3052    2.0774   56.9054 H       1  ZINC000474368324    0.1400
     49 H49       -12.5024    0.3326   58.6309 H       1  ZINC000474368324    0.1500
     50 H50        -9.1564    2.8471   51.2044 H       1  ZINC000474368324    0.0700
     51 H51        -9.5126    2.3243   52.8708 H       1  ZINC000474368324    0.1100
     52 H52        -7.1480    2.5098   53.4798 H       1  ZINC000474368324    0.0900
     53 H53        -7.6747    4.0443   52.7464 H       1  ZINC000474368324    0.0900
@<TRIPOS>BOND
     1     1     2    1
     2     1    29    1
     3     1    30    1
     4     1    31    1
     5     2     3    1
     6     2    32    1
     7     2    33    1
     8     3     4    1
     9     4     5    2
    10     4     6    1
    11     6    28    1
    12     6     7    1
    13     6    10    1
    14     7     8    1
    15     7    34    1
    16     7    35    1
    17     8     9    1
    18     9    36    1
    19     9    37    1
    20     9    38    1
    21    10    11    1
    22    10    39    1
    23    10    40    1
    24    11    12    1
    25    11    41    1
    26    11    42    1
    27    12    13   am
    28    12    27    1
    29    13    14    2
    30    13    15   am
    31    15    16    1
    32    15    43    1
    33    16    17    1
    34    16    18    1
    35    16    19    1
    36    18    44    1
    37    18    45    1
    38    18    46    1
    39    19    25   ar
    40    19    20   ar
    41    20    21   ar
    42    20    47    1
    43    21    22   ar
    44    21    48    1
    45    22    23   ar
    46    22    49    1
    47    23    24    1
    48    23    25   ar
    49    25    26    1
    50    27    28    1
    51    27    50    1
    52    27    51    1
    53    28    52    1
    54    28    53    1
@<TRIPOS>SUBSTRUCTURE
     1 ZINC000474368324        1 TEMP              0 ****  ****    0 ROOT


##########                                Name:    ZINC000840464592
##########                DOCK_Rotatable_Bonds:                  10
##########                         Heavy_Atoms:                  26
##########                    Molecular_Weight:             360.497
##########                DOCK_Rotatable_Bonds:                  10
##########                       Formal_Charge:          -0.0399996
##########                     HBond_Acceptors:                   5
##########                        HBond_Donors:                   1
##########                         Heavy_Atoms:                  26
##########                          Grid_Score:          -32.892944
##########                     Grid_vdw_energy:          -32.566246
##########                      Grid_es_energy:           -0.326699
##########           Internal_energy_repulsive:           81.369080

@<TRIPOS>MOLECULE
ZINC000840464592
 58 59 1 0 0
SMALL
USER_CHARGES


@<TRIPOS>ATOM
      1 C1         -5.3868    2.6391   50.0982 C.3     1  ZINC000840464592   -0.1500
      2 C2         -6.6908    2.0073   50.5894 C.3     1  ZINC000840464592   -0.1300
      3 C3         -6.4269    1.2324   51.8819 C.3     1  ZINC000840464592   -0.1200
      4 C4         -7.6927    0.4765   52.2908 C.3     1  ZINC000840464592   -0.1200
      5 C5         -8.6646    1.4410   52.9734 C.3     1  ZINC000840464592   -0.1200
      6 C6        -10.0478    0.7930   53.0628 C.3     1  ZINC000840464592    0.0600
      7 O7        -10.0017   -0.3039   53.9774 O.3     1  ZINC000840464592   -0.3600
      8 C8        -11.2523   -0.9752   54.1434 C.3     1  ZINC000840464592    0.0800
      9 H9        -12.0609   -0.2443   54.1355 H       1  ZINC000840464592    0.0800
     10 C10       -11.4529   -1.9703   52.9986 C.3     1  ZINC000840464592   -0.1800
     11 C11       -11.2556   -1.7136   55.4572 C.2     1  ZINC000840464592    0.5200
     12 O12       -11.2033   -2.9252   55.4720 O.2     1  ZINC000840464592   -0.5000
     13 N13       -11.3167   -1.0276   56.6156 N.am    1  ZINC000840464592   -0.6000
     14 C14       -11.3796    0.4316   56.5930 C.3     1  ZINC000840464592    0.0900
     15 C15       -10.1602    1.0541   57.2635 C.3     1  ZINC000840464592   -0.1600
     16 C16       -10.1109    0.6587   58.7410 C.3     1  ZINC000840464592    0.0800
     17 N17        -9.3721   -0.6015   58.8755 N.am    1  ZINC000840464592   -0.7200
     18 C18        -9.9134   -1.7542   58.4507 C.2     1  ZINC000840464592    0.5100
     19 O19        -9.2822   -2.7879   58.5145 O.2     1  ZINC000840464592   -0.5200
     20 C20       -11.3259   -1.7507   57.8916 C.3     1  ZINC000840464592    0.1400
     21 H21       -11.6577   -2.7762   57.7300 H       1  ZINC000840464592    0.1300
     22 C22       -12.2666   -1.0564   58.8785 C.3     1  ZINC000840464592   -0.1000
     23 C23       -13.4732   -1.9267   59.1194 C.ar    1  ZINC000840464592   -0.0900
     24 C24       -14.2181   -2.3868   58.0497 C.ar    1  ZINC000840464592   -0.1100
     25 C25       -15.3248   -3.1850   58.2705 C.ar    1  ZINC000840464592   -0.1200
     26 C26       -15.6864   -3.5235   59.5611 C.ar    1  ZINC000840464592   -0.1200
     27 C27       -14.9409   -3.0642   60.6307 C.ar    1  ZINC000840464592   -0.1200
     28 C28       -13.8317   -2.2694   60.4096 C.ar    1  ZINC000840464592   -0.1100
     29 H29        -4.6525    1.8560   49.9088 H       1  ZINC000840464592    0.0500
     30 H30        -5.5748    3.1911   49.1773 H       1  ZINC000840464592    0.0500
     31 H31        -5.0041    3.3200   50.8583 H       1  ZINC000840464592    0.0500
     32 H32        -7.4251    2.7904   50.7786 H       1  ZINC000840464592    0.0600
     33 H33        -7.0736    1.3263   49.8292 H       1  ZINC000840464592    0.0600
     34 H34        -5.6158    0.5223   51.7207 H       1  ZINC000840464592    0.0600
     35 H35        -6.1483    1.9289   52.6727 H       1  ZINC000840464592    0.0600
     36 H36        -8.1645    0.0518   51.4048 H       1  ZINC000840464592    0.0600
     37 H37        -7.4303   -0.3245   52.9819 H       1  ZINC000840464592    0.0600
     38 H38        -8.3051    1.6697   53.9767 H       1  ZINC000840464592    0.0700
     39 H39        -8.7313    2.3610   52.3928 H       1  ZINC000840464592    0.0700
     40 H40       -10.7716    1.5285   53.4137 H       1  ZINC000840464592    0.0500
     41 H41       -10.3445    0.4325   52.0778 H       1  ZINC000840464592    0.0500
     42 H42       -12.3720   -2.5327   53.1631 H       1  ZINC000840464592    0.0800
     43 H43       -11.5218   -1.4293   52.0549 H       1  ZINC000840464592    0.0700
     44 H44       -10.6078   -2.6577   52.9626 H       1  ZINC000840464592    0.0800
     45 H45       -11.4286    0.7700   55.5580 H       1  ZINC000840464592    0.1000
     46 H46       -12.2787    0.7575   57.1159 H       1  ZINC000840464592    0.0800
     47 H47        -9.2560    0.7040   56.7654 H       1  ZINC000840464592    0.0800
     48 H48       -10.2178    2.1396   57.1818 H       1  ZINC000840464592    0.1000
     49 H49        -9.6067    1.4393   59.3107 H       1  ZINC000840464592    0.0900
     50 H50       -11.1254    0.5284   59.1176 H       1  ZINC000840464592    0.1000
     51 H51        -8.4873   -0.6020   59.2732 H       1  ZINC000840464592    0.4000
     52 H52       -11.7454   -0.8891   59.8211 H       1  ZINC000840464592    0.0900
     53 H53       -12.5854   -0.0997   58.4649 H       1  ZINC000840464592    0.1000
     54 H54       -13.9357   -2.1223   57.0413 H       1  ZINC000840464592    0.1200
     55 H55       -15.9072   -3.5439   57.4348 H       1  ZINC000840464592    0.1200
     56 H56       -16.5515   -4.1466   59.7337 H       1  ZINC000840464592    0.1200
     57 H57       -15.2236   -3.3284   61.6390 H       1  ZINC000840464592    0.1200
     58 H58       -13.2493   -1.9106   61.2453 H       1  ZINC000840464592    0.1200
@<TRIPOS>BOND
     1     1     2    1
     2     1    29    1
     3     1    30    1
     4     1    31    1
     5     2     3    1
     6     2    32    1
     7     2    33    1
     8     3     4    1
     9     3    34    1
    10     3    35    1
    11     4     5    1
    12     4    36    1
    13     4    37    1
    14     5     6    1
    15     5    38    1
    16     5    39    1
    17     6     7    1
    18     6    40    1
    19     6    41    1
    20     7     8    1
    21     8     9    1
    22     8    10    1
    23     8    11    1
    24    10    42    1
    25    10    43    1
    26    10    44    1
    27    11    12    2
    28    11    13   am
    29    13    20    1
    30    13    14    1
    31    14    15    1
    32    14    45    1
    33    14    46    1
    34    15    16    1
    35    15    47    1
    36    15    48    1
    37    16    17    1
    38    16    49    1
    39    16    50    1
    40    17    18   am
    41    17    51    1
    42    18    19    2
    43    18    20    1
    44    20    21    1
    45    20    22    1
    46    22    23    1
    47    22    52    1
    48    22    53    1
    49    23    28   ar
    50    23    24   ar
    51    24    25   ar
    52    24    54    1
    53    25    26   ar
    54    25    55    1
    55    26    27   ar
    56    26    56    1
    57    27    28   ar
    58    27    57    1
    59    28    58    1
@<TRIPOS>SUBSTRUCTURE
     1 ZINC000840464592        1 TEMP              0 ****  ****    0 ROOT


##########                                Name:    ZINC000444811358
##########                DOCK_Rotatable_Bonds:                  11
##########                         Heavy_Atoms:                  27
##########                    Molecular_Weight:             374.455
##########                DOCK_Rotatable_Bonds:                  11
##########                       Formal_Charge:          0.00999966
##########                     HBond_Acceptors:                   6
##########                        HBond_Donors:                   2
##########                         Heavy_Atoms:                  27
##########                          Grid_Score:          -32.889919
##########                     Grid_vdw_energy:          -31.849880
##########                      Grid_es_energy:           -1.040041
##########           Internal_energy_repulsive:           19.471254

@<TRIPOS>MOLECULE
ZINC000444811358
 54 55 1 0 0
SMALL
USER_CHARGES


@<TRIPOS>ATOM
      1 C1         -9.6238    0.8762   63.2400 C.3     1  ZINC000444811358   -0.1100
      2 C2        -10.0507   -0.1241   62.1968 C.ar    1  ZINC000444811358   -0.1300
      3 C3         -9.1084   -0.9339   61.5911 C.ar    1  ZINC000444811358   -0.0700
      4 C4         -9.4961   -1.8517   60.6341 C.ar    1  ZINC000444811358   -0.1500
      5 C5        -10.8343   -1.9616   60.2801 C.ar    1  ZINC000444811358    0.1700
      6 N6        -11.2289   -2.8909   59.3113 N.am    1  ZINC000444811358   -0.6800
      7 C7        -11.4598   -2.4883   58.0459 C.2     1  ZINC000444811358    0.5200
      8 O8        -11.3256   -1.3206   57.7470 O.2     1  ZINC000444811358   -0.5000
      9 C9        -11.8847   -3.4892   57.0025 C.3     1  ZINC000444811358    0.0200
     10 N10       -13.1808   -3.0886   56.4389 N.3     1  ZINC000444811358   -0.5000
     11 C11       -13.2103   -3.2985   54.9853 C.3     1  ZINC000444811358    0.0200
     12 C12       -12.2557   -2.3129   54.3083 C.3     1  ZINC000444811358    0.1100
     13 H13       -11.8879   -1.5989   55.0451 H       1  ZINC000444811358    0.1200
     14 O14       -11.1534   -3.0274   53.7458 O.3     1  ZINC000444811358   -0.5400
     15 C15       -12.9977   -1.5645   53.1990 C.3     1  ZINC000444811358    0.0300
     16 O16       -12.6402   -0.1814   53.2360 O.3     1  ZINC000444811358   -0.3000
     17 C17       -11.3145    0.1144   53.1960 C.ar    1  ZINC000444811358    0.1300
     18 C18       -10.5430   -0.2965   52.1187 C.ar    1  ZINC000444811358   -0.2100
     19 C19        -9.1956    0.0060   52.0802 C.ar    1  ZINC000444811358   -0.0800
     20 C20        -8.6158    0.7173   53.1143 C.ar    1  ZINC000444811358   -0.1600
     21 C21        -9.3823    1.1276   54.1893 C.ar    1  ZINC000444811358   -0.0800
     22 C22       -10.7314    0.8330   54.2297 C.ar    1  ZINC000444811358   -0.1500
     23 C23       -14.2839   -3.8021   57.0963 C.3     1  ZINC000444811358    0.0700
     24 C24       -15.5519   -2.9478   57.0355 C.3     1  ZINC000444811358   -0.1400
     25 C25       -14.5299   -5.1316   56.3801 C.3     1  ZINC000444811358   -0.1900
     26 C26       -11.7804   -1.1480   60.8893 C.ar    1  ZINC000444811358   -0.1500
     27 C27       -11.3875   -0.2343   61.8507 C.ar    1  ZINC000444811358    0.1200
     28 F28       -12.3064    0.5581   62.4445 F       1  ZINC000444811358   -0.1300
     29 H29        -9.6524    0.4091   64.2244 H       1  ZINC000444811358    0.0700
     30 H30        -8.6093    1.2130   63.0268 H       1  ZINC000444811358    0.0700
     31 H31       -10.3011    1.7301   63.2232 H       1  ZINC000444811358    0.0700
     32 H32        -8.0675   -0.8488   61.8663 H       1  ZINC000444811358    0.1400
     33 H33        -8.7586   -2.4833   60.1613 H       1  ZINC000444811358    0.1300
     34 H34       -11.3362   -3.8248   59.5503 H       1  ZINC000444811358    0.4100
     35 H35       -11.1388   -3.5252   56.2085 H       1  ZINC000444811358    0.1300
     36 H36       -11.9764   -4.4743   57.4599 H       1  ZINC000444811358    0.0700
     37 H37       -12.8999   -4.3185   54.7591 H       1  ZINC000444811358    0.0500
     38 H38       -14.2226   -3.1361   54.6152 H       1  ZINC000444811358    0.1000
     39 H39       -10.3389   -2.9649   54.2632 H       1  ZINC000444811358    0.3700
     40 H40       -12.7241   -1.9847   52.2313 H       1  ZINC000444811358    0.0600
     41 H41       -14.0726   -1.6661   53.3484 H       1  ZINC000444811358    0.0700
     42 H42       -10.9954   -0.8527   51.3109 H       1  ZINC000444811358    0.1300
     43 H43        -8.5946   -0.3137   51.2417 H       1  ZINC000444811358    0.1200
     44 H44        -7.5621    0.9525   53.0825 H       1  ZINC000444811358    0.1200
     45 H45        -8.9270    1.6828   54.9961 H       1  ZINC000444811358    0.1300
     46 H46       -11.3298    1.1537   55.0696 H       1  ZINC000444811358    0.1300
     47 H47       -14.0239   -3.9928   58.1375 H       1  ZINC000444811358    0.0900
     48 H48       -15.8868   -2.8678   56.0013 H       1  ZINC000444811358    0.0500
     49 H49       -16.3332   -3.4142   57.6355 H       1  ZINC000444811358    0.0600
     50 H50       -15.3387   -1.9529   57.4264 H       1  ZINC000444811358    0.0700
     51 H51       -13.6267   -5.7401   56.4234 H       1  ZINC000444811358    0.0500
     52 H52       -15.3484   -5.6609   56.8679 H       1  ZINC000444811358    0.0700
     53 H53       -14.7899   -4.9408   55.3390 H       1  ZINC000444811358    0.0600
     54 H54       -12.8218   -1.2310   60.6157 H       1  ZINC000444811358    0.1500
@<TRIPOS>BOND
     1     1     2    1
     2     1    29    1
     3     1    30    1
     4     1    31    1
     5     2    27   ar
     6     2     3   ar
     7     3     4   ar
     8     3    32    1
     9     4     5   ar
    10     4    33    1
    11     5     6    1
    12     5    26   ar
    13     6     7   am
    14     6    34    1
    15     7     8    2
    16     7     9    1
    17     9    10    1
    18     9    35    1
    19     9    36    1
    20    10    11    1
    21    10    23    1
    22    11    12    1
    23    11    37    1
    24    11    38    1
    25    12    13    1
    26    12    14    1
    27    12    15    1
    28    14    39    1
    29    15    16    1
    30    15    40    1
    31    15    41    1
    32    16    17    1
    33    17    22   ar
    34    17    18   ar
    35    18    19   ar
    36    18    42    1
    37    19    20   ar
    38    19    43    1
    39    20    21   ar
    40    20    44    1
    41    21    22   ar
    42    21    45    1
    43    22    46    1
    44    23    24    1
    45    23    25    1
    46    23    47    1
    47    24    48    1
    48    24    49    1
    49    24    50    1
    50    25    51    1
    51    25    52    1
    52    25    53    1
    53    26    27   ar
    54    26    54    1
    55    27    28    1
@<TRIPOS>SUBSTRUCTURE
     1 ZINC000444811358        1 TEMP              0 ****  ****    0 ROOT


##########                                Name:    ZINC000410354665
##########                DOCK_Rotatable_Bonds:                   7
##########                         Heavy_Atoms:                  29
##########                    Molecular_Weight:             417.889
##########                DOCK_Rotatable_Bonds:                   7
##########                       Formal_Charge:        -3.72529e-08
##########                     HBond_Acceptors:                   7
##########                        HBond_Donors:                   1
##########                         Heavy_Atoms:                  29
##########                          Grid_Score:          -32.887379
##########                     Grid_vdw_energy:          -32.511089
##########                      Grid_es_energy:           -0.376290
##########           Internal_energy_repulsive:           20.325905

@<TRIPOS>MOLECULE
ZINC000410354665
 53 56 1 0 0
SMALL
USER_CHARGES


@<TRIPOS>ATOM
      1 C1         -3.7130    3.4853   55.1876 C.3     1  ZINC000410354665    0.0200
      2 O2         -2.6194    3.5979   54.2747 O.3     1  ZINC000410354665   -0.3000
      3 C3         -2.8267    3.1558   53.0054 C.ar    1  ZINC000410354665    0.0900
      4 C4         -4.0950    2.7888   52.6005 C.ar    1  ZINC000410354665   -0.1100
      5 C5         -4.3046    2.3354   51.2951 C.ar    1  ZINC000410354665   -0.1400
      6 C6         -5.6583    1.9422   50.8570 C.2     1  ZINC000410354665    0.5700
      7 O7         -6.1204    2.3970   49.8284 O.2     1  ZINC000410354665   -0.5300
      8 N8         -6.3819    1.0794   51.5973 N.am    1  ZINC000410354665   -0.7200
      9 C9         -7.7248    0.6879   51.1617 C.3     1  ZINC000410354665    0.1700
     10 C10        -8.6015    0.4724   52.3683 C.ar    1  ZINC000410354665   -0.1000
     11 C11        -9.5492   -0.5337   52.3617 C.ar    1  ZINC000410354665   -0.0900
     12 C12       -10.3572   -0.7330   53.4666 C.ar    1  ZINC000410354665   -0.0300
     13 Cl13      -11.5468   -1.9973   53.4545 Cl      1  ZINC000410354665   -0.0400
     14 C14       -10.2173    0.0767   54.5847 C.ar    1  ZINC000410354665    0.0700
     15 O15       -11.0246   -0.1260   55.6619 O.3     1  ZINC000410354665   -0.2900
     16 C16       -10.6058    0.4599   56.8993 C.3     1  ZINC000410354665    0.0200
     17 C17       -10.1792    1.9084   56.6254 C.3     1  ZINC000410354665    0.0200
     18 O18        -9.1041    1.8879   55.6801 O.3     1  ZINC000410354665   -0.3000
     19 C19        -9.2616    1.0855   54.5920 C.ar    1  ZINC000410354665    0.0600
     20 C20        -8.4526    1.2776   53.4819 C.ar    1  ZINC000410354665   -0.0900
     21 C21        -3.2305    2.2555   50.4059 C.ar    1  ZINC000410354665   -0.0800
     22 C22        -1.9671    2.6229   50.8164 C.ar    1  ZINC000410354665   -0.1900
     23 C23        -1.7597    3.0787   52.1109 C.ar    1  ZINC000410354665    0.1400
     24 O24        -0.5132    3.4395   52.5106 O.3     1  ZINC000410354665   -0.2900
     25 C25         0.5513    3.2350   51.5794 C.3     1  ZINC000410354665    0.0700
     26 C26         1.8575    3.8863   52.0977 C.3     1  ZINC000410354665   -0.1500
     27 C27         2.9562    3.0890   51.3517 C.3     1  ZINC000410354665   -0.1200
     28 C28         2.4226    1.6418   51.3268 C.3     1  ZINC000410354665   -0.1200
     29 C29         0.8935    1.7347   51.4715 C.3     1  ZINC000410354665   -0.1200
     30 H30        -4.5602    4.0592   54.8123 H       1  ZINC000410354665    0.0600
     31 H31        -3.9984    2.4379   55.2853 H       1  ZINC000410354665    0.0600
     32 H32        -3.4145    3.8729   56.1617 H       1  ZINC000410354665    0.1000
     33 H33        -4.9230    2.8516   53.2911 H       1  ZINC000410354665    0.1500
     34 H34        -6.0138    0.7175   52.4185 H       1  ZINC000410354665    0.4000
     35 H35        -8.1495    1.4762   50.5402 H       1  ZINC000410354665    0.0800
     36 H36        -7.6652   -0.2360   50.5863 H       1  ZINC000410354665    0.0900
     37 H37        -9.6592   -1.1650   51.4923 H       1  ZINC000410354665    0.1500
     38 H38       -11.4323    0.4482   57.6099 H       1  ZINC000410354665    0.1300
     39 H39        -9.7637   -0.1008   57.3050 H       1  ZINC000410354665    0.0800
     40 H40       -11.0196    2.4676   56.2141 H       1  ZINC000410354665    0.0800
     41 H41        -9.8450    2.3746   57.5522 H       1  ZINC000410354665    0.1300
     42 H42        -7.7078    2.0597   53.4862 H       1  ZINC000410354665    0.1400
     43 H43        -3.3900    1.9055   49.3967 H       1  ZINC000410354665    0.1300
     44 H44        -1.1374    2.5603   50.1278 H       1  ZINC000410354665    0.1400
     45 H45         0.2842    3.6366   50.6019 H       1  ZINC000410354665    0.0800
     46 H46         1.8961    4.9418   51.8286 H       1  ZINC000410354665    0.0700
     47 H47         1.9518    3.7577   53.1759 H       1  ZINC000410354665    0.0800
     48 H48         3.0799    3.4676   50.3371 H       1  ZINC000410354665    0.0700
     49 H49         3.8994    3.1385   51.8960 H       1  ZINC000410354665    0.0700
     50 H50         2.6799    1.1652   50.3808 H       1  ZINC000410354665    0.0700
     51 H51         2.8425    1.0747   52.1575 H       1  ZINC000410354665    0.0700
     52 H52         0.5713    1.2125   52.3725 H       1  ZINC000410354665    0.0800
     53 H53         0.4087    1.3030   50.5959 H       1  ZINC000410354665    0.0700
@<TRIPOS>BOND
     1     1     2    1
     2     1    30    1
     3     1    31    1
     4     1    32    1
     5     2     3    1
     6     3    23   ar
     7     3     4   ar
     8     4     5   ar
     9     4    33    1
    10     5     6    1
    11     5    21   ar
    12     6     7    2
    13     6     8   am
    14     8     9    1
    15     8    34    1
    16     9    10    1
    17     9    35    1
    18     9    36    1
    19    10    20   ar
    20    10    11   ar
    21    11    12   ar
    22    11    37    1
    23    12    13    1
    24    12    14   ar
    25    14    19   ar
    26    14    15    1
    27    15    16    1
    28    16    17    1
    29    16    38    1
    30    16    39    1
    31    17    18    1
    32    17    40    1
    33    17    41    1
    34    18    19    1
    35    19    20   ar
    36    20    42    1
    37    21    22   ar
    38    21    43    1
    39    22    23   ar
    40    22    44    1
    41    23    24    1
    42    24    25    1
    43    25    29    1
    44    25    26    1
    45    25    45    1
    46    26    27    1
    47    26    46    1
    48    26    47    1
    49    27    28    1
    50    27    48    1
    51    27    49    1
    52    28    29    1
    53    28    50    1
    54    28    51    1
    55    29    52    1
    56    29    53    1
@<TRIPOS>SUBSTRUCTURE
     1 ZINC000410354665        1 TEMP              0 ****  ****    0 ROOT


##########                                Name:    ZINC000859608860
##########                DOCK_Rotatable_Bonds:                   8
##########                         Heavy_Atoms:                  24
##########                    Molecular_Weight:             394.268
##########                DOCK_Rotatable_Bonds:                   8
##########                       Formal_Charge:          -0.0200003
##########                     HBond_Acceptors:                   6
##########                        HBond_Donors:                   1
##########                         Heavy_Atoms:                  24
##########                          Grid_Score:          -32.885666
##########                     Grid_vdw_energy:          -32.675232
##########                      Grid_es_energy:           -0.210434
##########           Internal_energy_repulsive:            7.972416

@<TRIPOS>MOLECULE
ZINC000859608860
 44 45 1 0 0
SMALL
USER_CHARGES


@<TRIPOS>ATOM
      1 C1        -12.6505   -1.4867   58.6205 C.3     1  ZINC000859608860   -0.1400
      2 C2        -11.2344   -1.9680   58.9435 C.3     1  ZINC000859608860   -0.0800
      3 C3        -10.2300   -0.8677   58.5953 C.3     1  ZINC000859608860   -0.1400
      4 C4        -11.1351   -2.2961   60.4346 C.3     1  ZINC000859608860   -0.1400
      5 C5        -10.9224   -3.2215   58.1236 C.3     1  ZINC000859608860    0.1300
      6 N6        -10.9096   -2.8822   56.6985 N.am    1  ZINC000859608860   -0.7300
      7 C7        -11.9004   -3.3147   55.8938 C.2     1  ZINC000859608860    0.5100
      8 O8        -12.8018   -3.9862   56.3492 O.2     1  ZINC000859608860   -0.5100
      9 C9        -11.8882   -2.9642   54.4282 C.3     1  ZINC000859608860    0.0500
     10 O10       -10.8300   -2.0043   54.1689 O.3     1  ZINC000859608860   -0.3100
     11 C11       -10.6779   -1.5902   52.8952 C.2     1  ZINC000859608860    0.5600
     12 O12       -11.1200   -2.2593   51.9818 O.2     1  ZINC000859608860   -0.5100
     13 C13        -9.9765   -0.3283   52.6105 C.2     1  ZINC000859608860   -0.0400
     14 C14        -8.6563   -0.1941   52.2899 C.2     1  ZINC000859608860    0.0500
     15 N15        -8.4295    1.1354   52.1087 N.pl3   1  ZINC000859608860   -0.4100
     16 C16        -7.2056    1.7280   51.7664 C.ar    1  ZINC000859608860    0.1400
     17 C17        -6.3759    2.2328   52.7584 C.ar    1  ZINC000859608860   -0.1200
     18 C18        -5.1707    2.8155   52.4187 C.ar    1  ZINC000859608860   -0.0600
     19 C19        -4.7900    2.8965   51.0910 C.ar    1  ZINC000859608860   -0.1000
     20 Br20       -3.1392    3.6952   50.6295 Br      1  ZINC000859608860   -0.0300
     21 C21        -5.6148    2.3939   50.1005 C.ar    1  ZINC000859608860   -0.0600
     22 C22        -6.8189    1.8058   50.4353 C.ar    1  ZINC000859608860   -0.1200
     23 C23        -9.6065    1.7858   52.3201 C.2     1  ZINC000859608860    0.2000
     24 N24       -10.5266    0.9132   52.6131 N.2     1  ZINC000859608860   -0.4300
     25 H25       -12.7213   -1.2529   57.5582 H       1  ZINC000859608860    0.0500
     26 H26       -13.3660   -2.2706   58.8685 H       1  ZINC000859608860    0.0600
     27 H27       -12.8728   -0.5938   59.2046 H       1  ZINC000859608860    0.0600
     28 H28       -10.4523    0.0253   59.1795 H       1  ZINC000859608860    0.0600
     29 H29        -9.2212   -1.2105   58.8256 H       1  ZINC000859608860    0.0600
     30 H30       -10.3008   -0.6339   57.5331 H       1  ZINC000859608860    0.0500
     31 H31       -11.8507   -3.0801   60.6826 H       1  ZINC000859608860    0.0600
     32 H32       -10.1264   -2.6390   60.6647 H       1  ZINC000859608860    0.0600
     33 H33       -11.3574   -1.4031   61.0187 H       1  ZINC000859608860    0.0600
     34 H34        -9.9465   -3.6114   58.4130 H       1  ZINC000859608860    0.0700
     35 H35       -11.6855   -3.9771   58.3103 H       1  ZINC000859608860    0.0700
     36 H36       -10.1880   -2.3461   56.3340 H       1  ZINC000859608860    0.4000
     37 H37       -11.7133   -3.8653   53.8404 H       1  ZINC000859608860    0.1000
     38 H38       -12.8486   -2.5299   54.1505 H       1  ZINC000859608860    0.1000
     39 H39        -7.9315   -0.9896   52.1982 H       1  ZINC000859608860    0.2000
     40 H40        -6.6728    2.1701   53.7949 H       1  ZINC000859608860    0.1400
     41 H41        -4.5252    3.2087   53.1902 H       1  ZINC000859608860    0.1500
     42 H42        -5.3155    2.4583   49.0648 H       1  ZINC000859608860    0.1500
     43 H43        -7.4624    1.4136   49.6618 H       1  ZINC000859608860    0.1500
     44 H44        -9.7540    2.8535   52.2517 H       1  ZINC000859608860    0.2200
@<TRIPOS>BOND
     1     1     2    1
     2     1    25    1
     3     1    26    1
     4     1    27    1
     5     2     3    1
     6     2     4    1
     7     2     5    1
     8     3    28    1
     9     3    29    1
    10     3    30    1
    11     4    31    1
    12     4    32    1
    13     4    33    1
    14     5     6    1
    15     5    34    1
    16     5    35    1
    17     6     7   am
    18     6    36    1
    19     7     8    2
    20     7     9    1
    21     9    10    1
    22     9    37    1
    23     9    38    1
    24    10    11    1
    25    11    12    2
    26    11    13    1
    27    13    24    1
    28    13    14    2
    29    14    15    1
    30    14    39    1
    31    15    16    1
    32    15    23    1
    33    16    22   ar
    34    16    17   ar
    35    17    18   ar
    36    17    40    1
    37    18    19   ar
    38    18    41    1
    39    19    20    1
    40    19    21   ar
    41    21    22   ar
    42    21    42    1
    43    22    43    1
    44    23    24    2
    45    23    44    1
@<TRIPOS>SUBSTRUCTURE
     1 ZINC000859608860        1 TEMP              0 ****  ****    0 ROOT


##########                                Name:    ZINC000432833246
##########                DOCK_Rotatable_Bonds:                   5
##########                         Heavy_Atoms:                  25
##########                    Molecular_Weight:             400.318
##########                DOCK_Rotatable_Bonds:                   5
##########                       Formal_Charge:        -3.20375e-07
##########                     HBond_Acceptors:                   4
##########                        HBond_Donors:                   1
##########                         Heavy_Atoms:                  25
##########                          Grid_Score:          -32.867294
##########                     Grid_vdw_energy:          -31.972557
##########                      Grid_es_energy:           -0.894736
##########           Internal_energy_repulsive:           12.137856

@<TRIPOS>MOLECULE
ZINC000432833246
 47 51 1 0 0
SMALL
USER_CHARGES


@<TRIPOS>ATOM
      1 O1         -5.0025    5.7226   51.7356 O.2     1  ZINC000432833246   -0.5200
      2 C2         -5.2626    4.6047   51.3437 C.2     1  ZINC000432833246    0.5200
      3 C3         -6.6593    4.0673   51.1222 C.3     1  ZINC000432833246   -0.1500
      4 C4         -6.4473    2.8085   50.2496 C.3     1  ZINC000432833246   -0.1100
      5 H5         -6.5372    3.0486   49.1901 H       1  ZINC000432833246    0.1000
      6 C6         -7.4256    1.6994   50.6417 C.3     1  ZINC000432833246    0.1300
      7 N7         -7.1996    1.3202   52.0386 N.pl3   1  ZINC000432833246   -0.7200
      8 C8         -8.2595    0.8829   52.8184 C.ar    1  ZINC000432833246    0.2800
      9 C9         -8.4966    1.4309   54.1015 C.ar    1  ZINC000432833246   -0.1500
     10 C10        -7.6721    2.4337   54.6303 C.ar    1  ZINC000432833246   -0.0700
     11 C11        -7.9328    2.9369   55.8694 C.ar    1  ZINC000432833246   -0.1300
     12 C12        -9.0088    2.4673   56.6185 C.ar    1  ZINC000432833246   -0.0600
     13 C13        -9.8295    1.4939   56.1345 C.ar    1  ZINC000432833246   -0.0800
     14 Br14      -11.2837    0.8753   57.1732 Br      1  ZINC000432833246   -0.0300
     15 C15        -9.5915    0.9511   54.8591 C.ar    1  ZINC000432833246    0.1900
     16 N16       -10.3819   -0.0053   54.3590 N.ar    1  ZINC000432833246   -0.5000
     17 C17       -10.1723   -0.5212   53.1700 C.ar    1  ZINC000432833246    0.2400
     18 C18       -11.0995   -1.5960   52.6644 C.3     1  ZINC000432833246   -0.1100
     19 C19       -11.3727   -2.7851   53.5878 C.3     1  ZINC000432833246   -0.1700
     20 C20       -12.4601   -1.7353   53.3503 C.3     1  ZINC000432833246   -0.1600
     21 C21        -9.1236   -0.1009   52.3637 C.ar    1  ZINC000432833246   -0.2700
     22 C22        -4.9959    2.4184   50.6068 C.3     1  ZINC000432833246    0.1100
     23 N23        -4.3517    3.6649   51.0374 N.am    1  ZINC000432833246   -0.5900
     24 C24        -2.9024    3.8571   51.1302 C.3     1  ZINC000432833246    0.0800
     25 C25        -2.0762    2.7202   51.7349 C.3     1  ZINC000432833246   -0.1900
     26 C26        -2.0161    2.9932   50.2307 C.3     1  ZINC000432833246   -0.1900
     27 H27        -7.1202    3.7993   52.0729 H       1  ZINC000432833246    0.1100
     28 H28        -7.2703    4.7992   50.5939 H       1  ZINC000432833246    0.1000
     29 H29        -8.4480    2.0582   50.5234 H       1  ZINC000432833246    0.0800
     30 H30        -7.2682    0.8325   49.9998 H       1  ZINC000432833246    0.0700
     31 H31        -6.3086    1.3750   52.4179 H       1  ZINC000432833246    0.4000
     32 H32        -6.8344    2.8052   54.0588 H       1  ZINC000432833246    0.1300
     33 H33        -7.2969    3.7095   56.2758 H       1  ZINC000432833246    0.1400
     34 H34        -9.1951    2.8810   57.5985 H       1  ZINC000432833246    0.1400
     35 H35       -11.0538   -1.7906   51.5930 H       1  ZINC000432833246    0.1300
     36 H36       -11.5066   -3.7622   53.1238 H       1  ZINC000432833246    0.1000
     37 H37       -10.8817   -2.7898   54.5609 H       1  ZINC000432833246    0.1000
     38 H38       -12.6845   -1.0494   54.1672 H       1  ZINC000432833246    0.0900
     39 H39       -13.3094   -2.0219   52.7300 H       1  ZINC000432833246    0.1000
     40 H40        -8.9769   -0.5440   51.3898 H       1  ZINC000432833246    0.1400
     41 H41        -4.9900    1.6875   51.4154 H       1  ZINC000432833246    0.0800
     42 H42        -4.4868    2.0169   49.7307 H       1  ZINC000432833246    0.0900
     43 H43        -2.5752    4.8778   51.3282 H       1  ZINC000432833246    0.1300
     44 H44        -1.2054    2.9927   52.3311 H       1  ZINC000432833246    0.1000
     45 H45        -2.6110    1.8291   52.0637 H       1  ZINC000432833246    0.1300
     46 H46        -2.5114    2.2818   49.5699 H       1  ZINC000432833246    0.0900
     47 H47        -1.1057    3.4454   49.8372 H       1  ZINC000432833246    0.1000
@<TRIPOS>BOND
     1     1     2    2
     2     2    23   am
     3     2     3    1
     4     3     4    1
     5     3    27    1
     6     3    28    1
     7     4     5    1
     8     4     6    1
     9     4    22    1
    10     6     7    1
    11     6    29    1
    12     6    30    1
    13     7     8    1
    14     7    31    1
    15     8    21   ar
    16     8     9   ar
    17     9    15   ar
    18     9    10   ar
    19    10    11   ar
    20    10    32    1
    21    11    12   ar
    22    11    33    1
    23    12    13   ar
    24    12    34    1
    25    13    14    1
    26    13    15   ar
    27    15    16   ar
    28    16    17   ar
    29    17    18    1
    30    17    21   ar
    31    18    20    1
    32    18    19    1
    33    18    35    1
    34    19    20    1
    35    19    36    1
    36    19    37    1
    37    20    38    1
    38    20    39    1
    39    21    40    1
    40    22    23    1
    41    22    41    1
    42    22    42    1
    43    23    24    1
    44    24    26    1
    45    24    25    1
    46    24    43    1
    47    25    26    1
    48    25    44    1
    49    25    45    1
    50    26    46    1
    51    26    47    1
@<TRIPOS>SUBSTRUCTURE
     1 ZINC000432833246        1 TEMP              0 ****  ****    0 ROOT


##########                                Name:    ZINC000981700465
##########                DOCK_Rotatable_Bonds:                   9
##########                         Heavy_Atoms:                  26
##########                    Molecular_Weight:             356.428
##########                DOCK_Rotatable_Bonds:                   9
##########                       Formal_Charge:               -0.01
##########                     HBond_Acceptors:                   8
##########                        HBond_Donors:                   3
##########                         Heavy_Atoms:                  26
##########                          Grid_Score:          -32.844345
##########                     Grid_vdw_energy:          -31.975859
##########                      Grid_es_energy:           -0.868487
##########           Internal_energy_repulsive:            8.760748

@<TRIPOS>MOLECULE
ZINC000981700465
 50 52 1 0 0
SMALL
USER_CHARGES


@<TRIPOS>ATOM
      1 C1        -12.0030   -1.7786   52.3888 C.3     1  ZINC000981700465   -0.1500
      2 C2        -11.3878   -0.6896   53.2701 C.3     1  ZINC000981700465   -0.1100
      3 C3         -9.9476   -0.4269   52.8255 C.3     1  ZINC000981700465   -0.0500
      4 C4         -9.3371    0.6357   53.7025 C.2     1  ZINC000981700465    0.1400
      5 N5         -9.8671    1.1336   54.7855 N.2     1  ZINC000981700465   -0.2900
      6 N6         -8.9976    2.0932   55.3157 N.pl3   1  ZINC000981700465   -0.4600
      7 C7         -7.9153    2.1705   54.5250 C.2     1  ZINC000981700465    0.1000
      8 C8         -8.0873    1.2628   53.4993 C.2     1  ZINC000981700465   -0.2900
      9 C9         -7.1477    1.0035   52.3932 C.2     1  ZINC000981700465    0.5900
     10 O10        -7.3322    0.0615   51.6468 O.2     1  ZINC000981700465   -0.5300
     11 N11        -6.0842    1.8108   52.2094 N.am    1  ZINC000981700465   -0.7300
     12 C12        -5.1495    1.5521   51.1113 C.3     1  ZINC000981700465    0.1300
     13 C13        -4.4172    2.8459   50.7495 C.3     1  ZINC000981700465   -0.1100
     14 H14        -5.0895    3.5326   50.2353 H       1  ZINC000981700465    0.0900
     15 C15        -3.8310    3.5105   52.0199 C.3     1  ZINC000981700465   -0.1200
     16 C16        -2.6805    4.3780   51.4519 C.3     1  ZINC000981700465   -0.1300
     17 C17        -2.0774    3.5154   50.3242 C.3     1  ZINC000981700465    0.1400
     18 H18        -1.7780    4.1486   49.4891 H       1  ZINC000981700465    0.1000
     19 N19        -0.9215    2.7688   50.8270 N.am    1  ZINC000981700465   -0.7100
     20 C20         0.3205    3.2717   50.6817 C.2     1  ZINC000981700465    0.5600
     21 O21         0.4816    4.3436   50.1324 O.2     1  ZINC000981700465   -0.5200
     22 C22         1.4892    2.5177   51.1918 C.ar    1  ZINC000981700465   -0.1400
     23 C23         1.8214    1.2592   50.6742 C.ar    1  ZINC000981700465   -0.0600
     24 C24         2.9289    0.6151   51.2015 C.ar    1  ZINC000981700465    0.0400
     25 N25         3.6311    1.1892   52.1590 N.ar    1  ZINC000981700465   -0.2200
     26 N26         3.3322    2.3413   52.6373 N.ar    1  ZINC000981700465   -0.2400
     27 C27         2.3017    3.0400   52.2020 C.ar    1  ZINC000981700465    0.0700
     28 C28        -3.1835    2.5415   49.8746 C.3     1  ZINC000981700465   -0.1200
     29 H29       -11.4205   -2.6950   52.4837 H       1  ZINC000981700465    0.0600
     30 H30       -13.0290   -1.9658   52.7055 H       1  ZINC000981700465    0.0600
     31 H31       -11.9978   -1.4508   51.3492 H       1  ZINC000981700465    0.0500
     32 H32       -11.9703    0.2268   53.1750 H       1  ZINC000981700465    0.0600
     33 H33       -11.3931   -1.0175   54.3096 H       1  ZINC000981700465    0.0600
     34 H34        -9.3677   -1.3459   52.9107 H       1  ZINC000981700465    0.1000
     35 H35        -9.9432   -0.0893   51.7891 H       1  ZINC000981700465    0.0800
     36 H36        -9.1509    2.6147   56.1191 H       1  ZINC000981700465    0.4500
     37 H37        -7.0645    2.8201   54.6676 H       1  ZINC000981700465    0.1800
     38 H38        -5.9377    2.5629   52.8040 H       1  ZINC000981700465    0.4000
     39 H39        -4.4250    0.7988   51.4206 H       1  ZINC000981700465    0.0700
     40 H40        -5.7003    1.1913   50.2427 H       1  ZINC000981700465    0.0700
     41 H41        -4.5791    4.1336   52.5099 H       1  ZINC000981700465    0.0700
     42 H42        -3.4443    2.7573   52.7064 H       1  ZINC000981700465    0.0700
     43 H43        -3.0706    5.3131   51.0499 H       1  ZINC000981700465    0.0800
     44 H44        -1.9348    4.5745   52.2223 H       1  ZINC000981700465    0.0700
     45 H45        -1.0499    1.9127   51.2645 H       1  ZINC000981700465    0.4000
     46 H46         1.2333    0.8057   49.8900 H       1  ZINC000981700465    0.1700
     47 H47         3.2170   -0.3568   50.8288 H       1  ZINC000981700465    0.1800
     48 H48         2.0820    4.0071   52.6295 H       1  ZINC000981700465    0.1700
     49 H49        -2.8613    1.5122   50.0317 H       1  ZINC000981700465    0.0800
     50 H50        -3.4185    2.7032   48.8226 H       1  ZINC000981700465    0.0800
@<TRIPOS>BOND
     1     1     2    1
     2     1    29    1
     3     1    30    1
     4     1    31    1
     5     2     3    1
     6     2    32    1
     7     2    33    1
     8     3     4    1
     9     3    34    1
    10     3    35    1
    11     4     8    1
    12     4     5    2
    13     5     6    1
    14     6     7    1
    15     6    36    1
    16     7     8    2
    17     7    37    1
    18     8     9    1
    19     9    10    2
    20     9    11   am
    21    11    12    1
    22    11    38    1
    23    12    13    1
    24    12    39    1
    25    12    40    1
    26    13    14    1
    27    13    28    1
    28    13    15    1
    29    15    16    1
    30    15    41    1
    31    15    42    1
    32    16    17    1
    33    16    43    1
    34    16    44    1
    35    17    18    1
    36    17    19    1
    37    17    28    1
    38    19    20   am
    39    19    45    1
    40    20    21    2
    41    20    22    1
    42    22    27   ar
    43    22    23   ar
    44    23    24   ar
    45    23    46    1
    46    24    25   ar
    47    24    47    1
    48    25    26   ar
    49    26    27   ar
    50    27    48    1
    51    28    49    1
    52    28    50    1
@<TRIPOS>SUBSTRUCTURE
     1 ZINC000981700465        1 TEMP              0 ****  ****    0 ROOT


##########                                Name:    ZINC000482187991
##########                DOCK_Rotatable_Bonds:                  11
##########                         Heavy_Atoms:                  29
##########                    Molecular_Weight:             407.414
##########                DOCK_Rotatable_Bonds:                  11
##########                       Formal_Charge:           0.0299996
##########                     HBond_Acceptors:                   8
##########                        HBond_Donors:                   1
##########                         Heavy_Atoms:                  29
##########                          Grid_Score:          -32.815041
##########                     Grid_vdw_energy:          -28.527555
##########                      Grid_es_energy:           -4.287484
##########           Internal_energy_repulsive:           27.646826

@<TRIPOS>MOLECULE
ZINC000482187991
 52 53 1 0 0
SMALL
USER_CHARGES


@<TRIPOS>ATOM
      1 C1         -7.1523    0.4625   52.3240 C.3     1  ZINC000482187991    0.0200
      2 O2         -8.5597    0.7056   52.3724 O.3     1  ZINC000482187991   -0.3000
      3 C3         -9.1741    0.5383   53.5741 C.ar    1  ZINC000482187991    0.1400
      4 C4         -8.7977    1.3114   54.6550 C.ar    1  ZINC000482187991   -0.1700
      5 C5         -9.4311    1.1386   55.8915 C.ar    1  ZINC000482187991   -0.1000
      6 C6         -9.0340    1.9589   57.0431 C.2     1  ZINC000482187991    0.4000
      7 O7         -7.9980    1.7221   57.6279 O.2     1  ZINC000482187991   -0.4500
      8 C8         -9.9134    3.0950   57.4981 C.3     1  ZINC000482187991   -0.1500
      9 C9         -9.6515    3.3816   58.9779 C.3     1  ZINC000482187991   -0.1300
     10 C10       -10.2393    2.2754   59.8157 C.2     1  ZINC000482187991    0.5200
     11 O11       -11.3019    1.7795   59.5060 O.2     1  ZINC000482187991   -0.5200
     12 N12        -9.5844    1.8373   60.9091 N.am    1  ZINC000482187991   -0.7200
     13 C13       -10.1568    0.7631   61.7244 C.3     1  ZINC000482187991    0.1500
     14 H14        -9.5041    0.5653   62.5747 H       1  ZINC000482187991    0.1300
     15 C15       -10.2873   -0.4853   60.8904 C.ar    1  ZINC000482187991   -0.1100
     16 C16        -9.1591   -1.2018   60.5373 C.ar    1  ZINC000482187991   -0.1000
     17 C17        -9.2788   -2.3468   59.7722 C.ar    1  ZINC000482187991   -0.1200
     18 C18       -10.5269   -2.7757   59.3606 C.ar    1  ZINC000482187991   -0.1100
     19 C19       -11.6552   -2.0597   59.7145 C.ar    1  ZINC000482187991   -0.1200
     20 C20       -11.5358   -0.9170   60.4832 C.ar    1  ZINC000482187991   -0.1000
     21 C21       -11.5378    1.1862   62.2290 C.3     1  ZINC000482187991    0.2500
     22 F22       -12.0629    0.1812   63.0484 F       1  ZINC000482187991   -0.1900
     23 F23       -11.4234    2.3727   62.9612 F       1  ZINC000482187991   -0.2000
     24 C24       -10.4446    0.1821   56.0275 C.ar    1  ZINC000482187991   -0.1900
     25 C25       -10.8156   -0.5873   54.9421 C.ar    1  ZINC000482187991    0.1400
     26 O26       -11.8002   -1.5163   55.0729 O.3     1  ZINC000482187991   -0.3000
     27 C27       -11.4018   -2.8343   55.4553 C.3     1  ZINC000482187991    0.0200
     28 C28       -10.1866   -0.4088   53.7118 C.ar    1  ZINC000482187991    0.0600
     29 O29       -10.5545   -1.1671   52.6465 O.3     1  ZINC000482187991   -0.3100
     30 C30       -11.6676   -0.7079   51.8770 C.3     1  ZINC000482187991    0.0400
     31 H31        -6.7890    0.6317   51.3104 H       1  ZINC000482187991    0.1100
     32 H32        -6.6428    1.1390   53.0102 H       1  ZINC000482187991    0.0600
     33 H33        -6.9516   -0.5688   52.6146 H       1  ZINC000482187991    0.0600
     34 H34        -8.0153    2.0480   54.5464 H       1  ZINC000482187991    0.1500
     35 H35        -9.6899    3.9854   56.9104 H       1  ZINC000482187991    0.1100
     36 H36       -10.9597    2.8221   57.3605 H       1  ZINC000482187991    0.1100
     37 H37        -8.5770    3.4377   59.1525 H       1  ZINC000482187991    0.1000
     38 H38       -10.1140    4.3298   59.2519 H       1  ZINC000482187991    0.1000
     39 H39        -8.7340    2.2331   61.1561 H       1  ZINC000482187991    0.4100
     40 H40        -8.1840   -0.8667   60.8589 H       1  ZINC000482187991    0.1200
     41 H41        -8.3973   -2.9062   59.4957 H       1  ZINC000482187991    0.1300
     42 H42       -10.6204   -3.6699   58.7623 H       1  ZINC000482187991    0.1300
     43 H43       -12.6302   -2.3946   59.3926 H       1  ZINC000482187991    0.1300
     44 H44       -12.4173   -0.3578   60.7596 H       1  ZINC000482187991    0.1300
     45 H45       -12.2017    1.3462   61.3793 H       1  ZINC000482187991    0.1200
     46 H46       -10.9352    0.0459   56.9798 H       1  ZINC000482187991    0.1500
     47 H47       -10.7161   -3.2373   54.7100 H       1  ZINC000482187991    0.0600
     48 H48       -10.9040   -2.7967   56.4244 H       1  ZINC000482187991    0.0600
     49 H49       -12.2815   -3.4744   55.5234 H       1  ZINC000482187991    0.1100
     50 H50       -12.5503   -0.6496   52.5138 H       1  ZINC000482187991    0.0500
     51 H51       -11.4464    0.2794   51.4713 H       1  ZINC000482187991    0.0500
     52 H52       -11.8552   -1.4031   51.0587 H       1  ZINC000482187991    0.1000
@<TRIPOS>BOND
     1     1     2    1
     2     1    31    1
     3     1    32    1
     4     1    33    1
     5     2     3    1
     6     3    28   ar
     7     3     4   ar
     8     4     5   ar
     9     4    34    1
    10     5     6    1
    11     5    24   ar
    12     6     7    2
    13     6     8    1
    14     8     9    1
    15     8    35    1
    16     8    36    1
    17     9    10    1
    18     9    37    1
    19     9    38    1
    20    10    11    2
    21    10    12   am
    22    12    13    1
    23    12    39    1
    24    13    14    1
    25    13    15    1
    26    13    21    1
    27    15    20   ar
    28    15    16   ar
    29    16    17   ar
    30    16    40    1
    31    17    18   ar
    32    17    41    1
    33    18    19   ar
    34    18    42    1
    35    19    20   ar
    36    19    43    1
    37    20    44    1
    38    21    22    1
    39    21    23    1
    40    21    45    1
    41    24    25   ar
    42    24    46    1
    43    25    26    1
    44    25    28   ar
    45    26    27    1
    46    27    47    1
    47    27    48    1
    48    27    49    1
    49    28    29    1
    50    29    30    1
    51    30    50    1
    52    30    51    1
    53    30    52    1
@<TRIPOS>SUBSTRUCTURE
     1 ZINC000482187991        1 TEMP              0 ****  ****    0 ROOT


##########                                Name:    ZINC000555499135
##########                DOCK_Rotatable_Bonds:                   8
##########                         Heavy_Atoms:                  26
##########                    Molecular_Weight:             377.554
##########                DOCK_Rotatable_Bonds:                   8
##########                       Formal_Charge:           0.0399999
##########                     HBond_Acceptors:                   7
##########                        HBond_Donors:                   0
##########                         Heavy_Atoms:                  26
##########                          Grid_Score:          -32.811733
##########                     Grid_vdw_energy:          -32.967598
##########                      Grid_es_energy:            0.155864
##########           Internal_energy_repulsive:           13.424875

@<TRIPOS>MOLECULE
ZINC000555499135
 57 59 1 0 0
SMALL
USER_CHARGES


@<TRIPOS>ATOM
      1 C1         -8.6874    2.9264   65.5957 C.3     1  ZINC000555499135   -0.1500
      2 C2         -9.6445    1.7328   65.5978 C.3     1  ZINC000555499135   -0.0500
      3 C3         -9.3439    0.8458   64.4172 C.2     1  ZINC000555499135   -0.2100
      4 C4         -8.4856   -0.1783   64.4016 C.2     1  ZINC000555499135    0.0300
      5 N5         -8.3991   -0.8013   63.2435 N.2     1  ZINC000555499135   -0.4500
      6 C6         -9.1367   -0.3597   62.2814 C.2     1  ZINC000555499135    0.0400
      7 C7         -9.1768   -0.9375   60.8902 C.3     1  ZINC000555499135    0.1500
      8 N8        -10.3353   -0.3951   60.1679 N.3     1  ZINC000555499135   -0.4500
      9 C9         -9.9544    0.7740   59.3642 C.3     1  ZINC000555499135    0.0100
     10 C10       -10.9288   -1.3678   59.3792 C.2     1  ZINC000555499135    0.3500
     11 N11       -10.3574   -2.4571   58.9222 N.2     1  ZINC000555499135   -0.3100
     12 N12       -11.2004   -3.1333   58.2264 N.2     1  ZINC000555499135   -0.2900
     13 C13       -12.3501   -2.5208   58.1986 C.2     1  ZINC000555499135    0.2100
     14 C14       -13.5949   -2.9894   57.4902 C.3     1  ZINC000555499135   -0.0300
     15 C15       -13.2220   -4.0474   56.4498 C.3     1  ZINC000555499135   -0.0900
     16 C16       -14.3902   -5.0184   56.2683 C.3     1  ZINC000555499135   -0.1500
     17 C17       -12.9144   -3.3645   55.1156 C.3     1  ZINC000555499135   -0.1500
     18 N18       -12.2194   -1.3768   58.9362 N.pl3   1  ZINC000555499135   -0.4600
     19 C19       -13.2489   -0.3662   59.1909 C.3     1  ZINC000555499135    0.1100
     20 C20       -13.8121   -0.5558   60.6007 C.3     1  ZINC000555499135    0.0700
     21 H21       -13.1192   -1.1552   61.1913 H       1  ZINC000555499135    0.0700
     22 C22       -15.1635   -1.2704   60.5188 C.3     1  ZINC000555499135   -0.1500
     23 C23       -15.7485   -1.4028   61.9283 C.3     1  ZINC000555499135   -0.1200
     24 C24       -15.8647   -0.0095   62.5539 C.3     1  ZINC000555499135   -0.1600
     25 C25       -14.4861    0.6565   62.5572 C.3     1  ZINC000555499135    0.0600
     26 O26       -13.9860    0.7202   61.2201 O.3     1  ZINC000555499135   -0.3700
     27 S27       -10.0677    0.9712   62.8156 S.3     1  ZINC000555499135    0.1200
     28 H28        -7.6600    2.5684   65.6626 H       1  ZINC000555499135    0.0600
     29 H29        -8.8155    3.4933   64.6735 H       1  ZINC000555499135    0.0600
     30 H30        -8.9048    3.5680   66.4497 H       1  ZINC000555499135    0.0700
     31 H31        -9.5165    1.1660   66.5199 H       1  ZINC000555499135    0.0900
     32 H32       -10.6719    2.0908   65.5310 H       1  ZINC000555499135    0.0800
     33 H33        -7.9100   -0.4714   65.2671 H       1  ZINC000555499135    0.1800
     34 H34        -8.2618   -0.6729   60.3603 H       1  ZINC000555499135    0.0800
     35 H35        -9.2614   -2.0227   60.9497 H       1  ZINC000555499135    0.1200
     36 H36        -9.2856    0.4614   58.5622 H       1  ZINC000555499135    0.0500
     37 H37       -10.8483    1.2274   58.9359 H       1  ZINC000555499135    0.0800
     38 H38        -9.4465    1.5009   59.9983 H       1  ZINC000555499135    0.0900
     39 H39       -14.2851   -3.4204   58.2154 H       1  ZINC000555499135    0.1000
     40 H40       -14.0707   -2.1435   56.9939 H       1  ZINC000555499135    0.1000
     41 H41       -12.3429   -4.5958   56.7884 H       1  ZINC000555499135    0.0800
     42 H42       -14.6354   -5.4751   57.2272 H       1  ZINC000555499135    0.0500
     43 H43       -15.2578   -4.4766   55.8916 H       1  ZINC000555499135    0.0600
     44 H44       -14.1100   -5.7953   55.5570 H       1  ZINC000555499135    0.0600
     45 H45       -12.0820   -2.6728   55.2449 H       1  ZINC000555499135    0.0600
     46 H46       -12.6486   -4.1183   54.3744 H       1  ZINC000555499135    0.0600
     47 H47       -13.7935   -2.8161   54.7771 H       1  ZINC000555499135    0.0600
     48 H48       -12.8108    0.6282   59.1053 H       1  ZINC000555499135    0.1100
     49 H49       -14.0517   -0.4735   58.4614 H       1  ZINC000555499135    0.1200
     50 H50       -15.8444   -0.6916   59.8947 H       1  ZINC000555499135    0.0800
     51 H51       -15.0258   -2.2617   60.0870 H       1  ZINC000555499135    0.0800
     52 H52       -16.7362   -1.8605   61.8717 H       1  ZINC000555499135    0.0700
     53 H53       -15.0922   -2.0231   62.5387 H       1  ZINC000555499135    0.0600
     54 H54       -16.5597    0.5948   61.9709 H       1  ZINC000555499135    0.0700
     55 H55       -16.2284   -0.0989   63.5776 H       1  ZINC000555499135    0.0800
     56 H56       -14.5706    1.6648   62.9622 H       1  ZINC000555499135    0.1000
     57 H57       -13.8022    0.0730   63.1735 H       1  ZINC000555499135    0.0500
@<TRIPOS>BOND
     1     1     2    1
     2     1    28    1
     3     1    29    1
     4     1    30    1
     5     2     3    1
     6     2    31    1
     7     2    32    1
     8     3    27    1
     9     3     4    2
    10     4     5    1
    11     4    33    1
    12     5     6    2
    13     6     7    1
    14     6    27    1
    15     7     8    1
    16     7    34    1
    17     7    35    1
    18     8     9    1
    19     8    10    1
    20     9    36    1
    21     9    37    1
    22     9    38    1
    23    10    18    1
    24    10    11    2
    25    11    12    1
    26    12    13    2
    27    13    14    1
    28    13    18    1
    29    14    15    1
    30    14    39    1
    31    14    40    1
    32    15    16    1
    33    15    17    1
    34    15    41    1
    35    16    42    1
    36    16    43    1
    37    16    44    1
    38    17    45    1
    39    17    46    1
    40    17    47    1
    41    18    19    1
    42    19    20    1
    43    19    48    1
    44    19    49    1
    45    20    21    1
    46    20    26    1
    47    20    22    1
    48    22    23    1
    49    22    50    1
    50    22    51    1
    51    23    24    1
    52    23    52    1
    53    23    53    1
    54    24    25    1
    55    24    54    1
    56    24    55    1
    57    25    26    1
    58    25    56    1
    59    25    57    1
@<TRIPOS>SUBSTRUCTURE
     1 ZINC000555499135        1 TEMP              0 ****  ****    0 ROOT


##########                                Name:    ZINC000816269301
##########                DOCK_Rotatable_Bonds:                   7
##########                         Heavy_Atoms:                  25
##########                    Molecular_Weight:             358.784
##########                DOCK_Rotatable_Bonds:                   7
##########                       Formal_Charge:           0.0100002
##########                     HBond_Acceptors:                   8
##########                        HBond_Donors:                   1
##########                         Heavy_Atoms:                  25
##########                          Grid_Score:          -32.811615
##########                     Grid_vdw_energy:          -32.263996
##########                      Grid_es_energy:           -0.547620
##########           Internal_energy_repulsive:            6.260693

@<TRIPOS>MOLECULE
ZINC000816269301
 40 42 1 0 0
SMALL
USER_CHARGES


@<TRIPOS>ATOM
      1 C1         -4.2958    2.5135   50.0401 C.3     1  ZINC000816269301    0.1000
      2 N2         -5.6768    2.7763   50.4528 N.pl3   1  ZINC000816269301   -0.4000
      3 N3         -6.3993    3.9612   50.2523 N.2     1  ZINC000816269301    0.0000
      4 N4         -7.5804    3.8332   50.7456 N.2     1  ZINC000816269301   -0.2000
      5 C5         -7.7270    2.6018   51.2902 C.ar    1  ZINC000816269301   -0.0300
      6 C6         -8.7884    1.9666   51.9404 C.ar    1  ZINC000816269301    0.0500
      7 C7         -8.6305    0.6643   52.3992 C.ar    1  ZINC000816269301   -0.1400
      8 C8         -9.7470   -0.0134   53.0864 C.2     1  ZINC000816269301    0.5200
      9 O9        -10.5345    0.6326   53.7486 O.2     1  ZINC000816269301   -0.5000
     10 O10        -9.8931   -1.3484   52.9794 O.3     1  ZINC000816269301   -0.3500
     11 C11       -11.2426   -1.8743   53.0817 C.3     1  ZINC000816269301    0.0500
     12 C12       -11.3102   -2.8863   54.2272 C.3     1  ZINC000816269301    0.1200
     13 N13       -11.4410   -2.1743   55.5007 N.am    1  ZINC000816269301   -0.7200
     14 C14       -11.0936   -2.7830   56.6520 C.2     1  ZINC000816269301    0.5600
     15 O15       -10.6703   -3.9224   56.6332 O.2     1  ZINC000816269301   -0.5300
     16 C16       -11.2273   -2.0654   57.9369 C.ar    1  ZINC000816269301   -0.1300
     17 C17       -12.0402   -0.9340   58.0264 C.ar    1  ZINC000816269301   -0.0700
     18 C18       -12.1610   -0.2684   59.2281 C.ar    1  ZINC000816269301   -0.1200
     19 C19       -11.4777   -0.7204   60.3450 C.ar    1  ZINC000816269301   -0.0100
     20 Cl20      -11.6351    0.1223   61.8546 Cl      1  ZINC000816269301   -0.0600
     21 C21       -10.6696   -1.8424   60.2623 C.ar    1  ZINC000816269301   -0.1200
     22 C22       -10.5456   -2.5196   59.0675 C.ar    1  ZINC000816269301   -0.0500
     23 C23        -7.4142   -0.0087   52.2113 C.ar    1  ZINC000816269301   -0.0200
     24 C24        -6.3756    0.6056   51.5780 C.ar    1  ZINC000816269301   -0.1300
     25 C25        -6.5161    1.9084   51.1056 C.ar    1  ZINC000816269301    0.1100
     26 H26        -4.2908    2.0948   49.0337 H       1  ZINC000816269301    0.0900
     27 H27        -3.7304    3.4454   50.0487 H       1  ZINC000816269301    0.1000
     28 H28        -3.8388    1.8048   50.7308 H       1  ZINC000816269301    0.1000
     29 H29        -9.7250    2.4844   52.0856 H       1  ZINC000816269301    0.1600
     30 H30       -11.9371   -1.0572   53.2773 H       1  ZINC000816269301    0.0800
     31 H31       -11.5131   -2.3651   52.1468 H       1  ZINC000816269301    0.1000
     32 H32       -12.1719   -3.5386   54.0854 H       1  ZINC000816269301    0.1000
     33 H33       -10.3993   -3.4848   54.2374 H       1  ZINC000816269301    0.0900
     34 H34       -11.7777   -1.2646   55.5156 H       1  ZINC000816269301    0.4000
     35 H35       -12.5732   -0.5803   57.1562 H       1  ZINC000816269301    0.1400
     36 H36       -12.7893    0.6072   59.2985 H       1  ZINC000816269301    0.1400
     37 H37       -10.1393   -2.1902   61.1365 H       1  ZINC000816269301    0.1400
     38 H38        -9.9155   -3.3944   59.0043 H       1  ZINC000816269301    0.1500
     39 H39        -7.2999   -1.0206   52.5714 H       1  ZINC000816269301    0.1500
     40 H40        -5.4429    0.0794   51.4379 H       1  ZINC000816269301    0.1400
@<TRIPOS>BOND
     1     1     2    1
     2     1    26    1
     3     1    27    1
     4     1    28    1
     5     2    25    1
     6     2     3    1
     7     3     4    2
     8     4     5    1
     9     5    25   ar
    10     5     6   ar
    11     6     7   ar
    12     6    29    1
    13     7     8    1
    14     7    23   ar
    15     8     9    2
    16     8    10    1
    17    10    11    1
    18    11    12    1
    19    11    30    1
    20    11    31    1
    21    12    13    1
    22    12    32    1
    23    12    33    1
    24    13    14   am
    25    13    34    1
    26    14    15    2
    27    14    16    1
    28    16    22   ar
    29    16    17   ar
    30    17    18   ar
    31    17    35    1
    32    18    19   ar
    33    18    36    1
    34    19    20    1
    35    19    21   ar
    36    21    22   ar
    37    21    37    1
    38    22    38    1
    39    23    24   ar
    40    23    39    1
    41    24    25   ar
    42    24    40    1
@<TRIPOS>SUBSTRUCTURE
     1 ZINC000816269301        1 TEMP              0 ****  ****    0 ROOT


##########                                Name:    ZINC000482540246
##########                DOCK_Rotatable_Bonds:                  10
##########                         Heavy_Atoms:                  30
##########                    Molecular_Weight:              409.46
##########                DOCK_Rotatable_Bonds:                  10
##########                       Formal_Charge:         2.83122e-07
##########                     HBond_Acceptors:                   7
##########                        HBond_Donors:                   2
##########                         Heavy_Atoms:                  30
##########                          Grid_Score:          -32.789436
##########                     Grid_vdw_energy:          -30.888309
##########                      Grid_es_energy:           -1.901127
##########           Internal_energy_repulsive:           18.077623

@<TRIPOS>MOLECULE
ZINC000482540246
 54 56 1 0 0
SMALL
USER_CHARGES


@<TRIPOS>ATOM
      1 C1         -2.5279    2.8152   57.3689 C.3     1  ZINC000482540246    0.0400
      2 O2         -2.8886    4.1149   56.8968 O.3     1  ZINC000482540246   -0.3100
      3 C3         -4.1861    4.3059   56.5495 C.ar    1  ZINC000482540246    0.3300
      4 C4         -5.0914    3.2596   56.6697 C.ar    1  ZINC000482540246   -0.1800
      5 C5         -6.4123    3.4674   56.3120 C.ar    1  ZINC000482540246   -0.0100
      6 C6         -7.4258    2.3581   56.4281 C.3     1  ZINC000482540246    0.2000
      7 H7         -6.9192    1.3951   56.3657 H       1  ZINC000482540246    0.1000
      8 C8         -8.4419    2.4745   55.2901 C.3     1  ZINC000482540246   -0.1600
      9 N9         -8.1192    2.4628   57.7144 N.am    1  ZINC000482540246   -0.7400
     10 C10        -8.4964    1.3470   58.3693 C.2     1  ZINC000482540246    0.7100
     11 O11        -8.2627    0.2534   57.8919 O.2     1  ZINC000482540246   -0.5800
     12 N12        -9.1329    1.4432   59.5535 N.am    1  ZINC000482540246   -0.7400
     13 C13        -9.5414    0.2302   60.2662 C.3     1  ZINC000482540246    0.2100
     14 H14        -8.8614   -0.5843   60.0167 H       1  ZINC000482540246    0.1200
     15 C15       -10.9649   -0.1491   59.8531 C.3     1  ZINC000482540246    0.0500
     16 O16       -11.1422   -1.5599   59.9950 O.3     1  ZINC000482540246   -0.3000
     17 C17       -12.3418   -2.0728   59.6126 C.ar    1  ZINC000482540246    0.1000
     18 C18       -12.4486   -2.7768   58.4233 C.ar    1  ZINC000482540246   -0.1800
     19 C19       -13.6691   -3.2979   58.0366 C.ar    1  ZINC000482540246   -0.0900
     20 C20       -14.7835   -3.1181   58.8341 C.ar    1  ZINC000482540246   -0.1300
     21 C21       -14.6815   -2.4160   60.0213 C.ar    1  ZINC000482540246   -0.1200
     22 C22       -13.4618   -1.8974   60.4159 C.ar    1  ZINC000482540246    0.0700
     23 F23       -13.3618   -1.2114   61.5756 F       1  ZINC000482540246   -0.1300
     24 C24        -9.4997    0.4822   61.7514 C.ar    1  ZINC000482540246   -0.1000
     25 C25        -8.7545   -0.3439   62.5720 C.ar    1  ZINC000482540246   -0.0800
     26 C26        -8.7164   -0.1128   63.9344 C.ar    1  ZINC000482540246   -0.1200
     27 C27        -9.4231    0.9446   64.4762 C.ar    1  ZINC000482540246   -0.1200
     28 C28       -10.1674    1.7711   63.6555 C.ar    1  ZINC000482540246   -0.1200
     29 C29       -10.2022    1.5426   62.2925 C.ar    1  ZINC000482540246   -0.1000
     30 C30        -6.7822    4.7206   55.8446 C.ar    1  ZINC000482540246   -0.2100
     31 C31        -5.8287    5.7152   55.7509 C.ar    1  ZINC000482540246    0.1500
     32 N32        -4.5781    5.4884   56.1047 N.ar    1  ZINC000482540246   -0.5400
     33 H33        -1.4653    2.7986   57.6113 H       1  ZINC000482540246    0.1000
     34 H34        -3.1078    2.5789   58.2611 H       1  ZINC000482540246    0.0600
     35 H35        -2.7356    2.0768   56.5945 H       1  ZINC000482540246    0.0600
     36 H36        -4.7690    2.2965   57.0371 H       1  ZINC000482540246    0.1500
     37 H37        -8.9485    3.4376   55.3525 H       1  ZINC000482540246    0.0600
     38 H38        -7.9260    2.3967   54.3331 H       1  ZINC000482540246    0.0700
     39 H39        -9.1749    1.6722   55.3740 H       1  ZINC000482540246    0.0700
     40 H40        -8.3067    3.3352   58.0947 H       1  ZINC000482540246    0.4000
     41 H41        -9.3204    2.3155   59.9338 H       1  ZINC000482540246    0.4000
     42 H42       -11.6792    0.3728   60.4899 H       1  ZINC000482540246    0.0800
     43 H43       -11.1294    0.1350   58.8137 H       1  ZINC000482540246    0.0800
     44 H44       -11.5787   -2.9177   57.7989 H       1  ZINC000482540246    0.1400
     45 H45       -13.7521   -3.8460   57.1096 H       1  ZINC000482540246    0.1300
     46 H46       -15.7358   -3.5263   58.5294 H       1  ZINC000482540246    0.1400
     47 H47       -15.5539   -2.2765   60.6425 H       1  ZINC000482540246    0.1400
     48 H48        -8.2025   -1.1700   62.1487 H       1  ZINC000482540246    0.1200
     49 H49        -8.1348   -0.7586   64.5755 H       1  ZINC000482540246    0.1200
     50 H50        -9.3937    1.1247   65.5406 H       1  ZINC000482540246    0.1200
     51 H51       -10.7198    2.5970   64.0787 H       1  ZINC000482540246    0.1200
     52 H52       -10.7838    2.1884   61.6514 H       1  ZINC000482540246    0.1200
     53 H53        -7.8046    4.9159   55.5568 H       1  ZINC000482540246    0.1400
     54 H54        -6.1113    6.6922   55.3878 H       1  ZINC000482540246    0.1600
@<TRIPOS>BOND
     1     1     2    1
     2     1    33    1
     3     1    34    1
     4     1    35    1
     5     2     3    1
     6     3    32   ar
     7     3     4   ar
     8     4     5   ar
     9     4    36    1
    10     5     6    1
    11     5    30   ar
    12     6     7    1
    13     6     8    1
    14     6     9    1
    15     8    37    1
    16     8    38    1
    17     8    39    1
    18     9    10   am
    19     9    40    1
    20    10    11    2
    21    10    12   am
    22    12    13    1
    23    12    41    1
    24    13    14    1
    25    13    15    1
    26    13    24    1
    27    15    16    1
    28    15    42    1
    29    15    43    1
    30    16    17    1
    31    17    22   ar
    32    17    18   ar
    33    18    19   ar
    34    18    44    1
    35    19    20   ar
    36    19    45    1
    37    20    21   ar
    38    20    46    1
    39    21    22   ar
    40    21    47    1
    41    22    23    1
    42    24    29   ar
    43    24    25   ar
    44    25    26   ar
    45    25    48    1
    46    26    27   ar
    47    26    49    1
    48    27    28   ar
    49    27    50    1
    50    28    29   ar
    51    28    51    1
    52    29    52    1
    53    30    31   ar
    54    30    53    1
    55    31    32   ar
    56    31    54    1
@<TRIPOS>SUBSTRUCTURE
     1 ZINC000482540246        1 TEMP              0 ****  ****    0 ROOT


##########                                Name:    ZINC000066361645
##########                DOCK_Rotatable_Bonds:                   8
##########                         Heavy_Atoms:                  27
##########                    Molecular_Weight:             392.519
##########                DOCK_Rotatable_Bonds:                   8
##########                       Formal_Charge:           0.0100004
##########                     HBond_Acceptors:                   7
##########                        HBond_Donors:                   2
##########                         Heavy_Atoms:                  27
##########                          Grid_Score:          -32.789158
##########                     Grid_vdw_energy:          -30.490969
##########                      Grid_es_energy:           -2.298189
##########           Internal_energy_repulsive:           16.650885

@<TRIPOS>MOLECULE
ZINC000066361645
 55 57 1 0 0
SMALL
USER_CHARGES


@<TRIPOS>ATOM
      1 C1         -7.7888    2.2143   56.7027 C.3     1  ZINC000066361645   -0.1400
      2 S2         -8.0116    2.7847   54.9953 S.3     1  ZINC000066361645   -0.1100
      3 C3         -8.7734    1.4026   54.2118 C.ar    1  ZINC000066361645   -0.1200
      4 C4        -10.0127    0.9550   54.6443 C.ar    1  ZINC000066361645   -0.1100
      5 C5        -10.6138   -0.1327   54.0276 C.ar    1  ZINC000066361645    0.0500
      6 C6         -9.9746   -0.7742   52.9738 C.ar    1  ZINC000066361645    0.0700
      7 C7         -8.7340   -0.3293   52.5408 C.ar    1  ZINC000066361645   -0.1100
      8 C8         -8.1338    0.7603   53.1521 C.ar    1  ZINC000066361645    0.1800
      9 N9         -6.8793    1.2094   52.7126 N.am    1  ZINC000066361645   -0.6600
     10 C10        -6.7772    1.9044   51.5624 C.2     1  ZINC000066361645    0.5100
     11 O11        -7.7700    2.1417   50.9070 O.2     1  ZINC000066361645   -0.5000
     12 C12        -5.4298    2.3867   51.0905 C.3     1  ZINC000066361645   -0.1500
     13 C13        -4.9843    3.5737   51.9468 C.3     1  ZINC000066361645    0.1600
     14 H14        -5.6189    3.6429   52.8303 H       1  ZINC000066361645    0.1000
     15 C15        -5.1023    4.8633   51.1319 C.3     1  ZINC000066361645   -0.1600
     16 N16        -3.5917    3.3827   52.3596 N.am    1  ZINC000066361645   -0.7200
     17 C17        -2.6424    3.1371   51.4349 C.2     1  ZINC000066361645    0.5300
     18 O18        -2.9409    3.0753   50.2610 O.2     1  ZINC000066361645   -0.5400
     19 C19        -1.2102    2.9389   51.8596 C.3     1  ZINC000066361645   -0.1100
     20 C20        -0.2768    3.4574   50.7639 C.3     1  ZINC000066361645   -0.1100
     21 C21         1.1773    3.2562   51.1952 C.3     1  ZINC000066361645   -0.1200
     22 C22         1.4359    4.0261   52.4918 C.3     1  ZINC000066361645   -0.1200
     23 C23         0.5025    3.5075   53.5876 C.3     1  ZINC000066361645   -0.1200
     24 C24        -0.9517    3.7088   53.1563 C.3     1  ZINC000066361645   -0.1000
     25 O25       -10.5543   -1.8390   52.3520 O.3     1  ZINC000066361645   -0.3000
     26 C26       -11.6213   -2.4896   53.0502 C.3     1  ZINC000066361645    0.0200
     27 C27       -12.5712   -1.4111   53.5885 C.3     1  ZINC000066361645    0.0200
     28 O28       -11.8294   -0.5599   54.4689 O.3     1  ZINC000066361645   -0.3100
     29 H29        -8.7598    1.9709   57.1341 H       1  ZINC000066361645    0.0900
     30 H30        -7.1554    1.3272   56.7097 H       1  ZINC000066361645    0.0900
     31 H31        -7.3172    3.0019   57.2904 H       1  ZINC000066361645    0.1100
     32 H32       -10.5105    1.4540   55.4627 H       1  ZINC000066361645    0.1400
     33 H33        -8.2368   -0.8302   51.7234 H       1  ZINC000066361645    0.1600
     34 H34        -6.0854    1.0197   53.2367 H       1  ZINC000066361645    0.4100
     35 H35        -4.7027    1.5798   51.1815 H       1  ZINC000066361645    0.1000
     36 H36        -5.4996    2.6968   50.0478 H       1  ZINC000066361645    0.1200
     37 H37        -4.4677    4.7942   50.2484 H       1  ZINC000066361645    0.0600
     38 H38        -6.1384    5.0054   50.8248 H       1  ZINC000066361645    0.0700
     39 H39        -4.7849    5.7090   51.7420 H       1  ZINC000066361645    0.0700
     40 H40        -3.3527    3.4333   53.2983 H       1  ZINC000066361645    0.4000
     41 H41        -1.0234    1.8776   52.0238 H       1  ZINC000066361645    0.1000
     42 H42        -0.4609    2.9090   49.8401 H       1  ZINC000066361645    0.0600
     43 H43        -0.4635    4.5187   50.5997 H       1  ZINC000066361645    0.0700
     44 H44         1.3640    2.1950   51.3594 H       1  ZINC000066361645    0.0600
     45 H45         1.8423    3.6256   50.4146 H       1  ZINC000066361645    0.0700
     46 H46         2.4718    3.8827   52.7991 H       1  ZINC000066361645    0.0600
     47 H47         1.2491    5.0873   52.3277 H       1  ZINC000066361645    0.0600
     48 H48         0.6893    2.4462   53.7517 H       1  ZINC000066361645    0.0600
     49 H49         0.6867    4.0560   54.5114 H       1  ZINC000066361645    0.0700
     50 H50        -1.1384    4.7700   52.9921 H       1  ZINC000066361645    0.0700
     51 H51        -1.6166    3.3393   53.9370 H       1  ZINC000066361645    0.0700
     52 H52       -12.1605   -3.1467   52.3678 H       1  ZINC000066361645    0.1300
     53 H53       -11.2177   -3.0710   53.8792 H       1  ZINC000066361645    0.0800
     54 H54       -12.9696   -0.8254   52.7601 H       1  ZINC000066361645    0.0800
     55 H55       -13.3894   -1.8810   54.1344 H       1  ZINC000066361645    0.1200
@<TRIPOS>BOND
     1     1     2    1
     2     1    29    1
     3     1    30    1
     4     1    31    1
     5     2     3    1
     6     3     8   ar
     7     3     4   ar
     8     4     5   ar
     9     4    32    1
    10     5    28    1
    11     5     6   ar
    12     6     7   ar
    13     6    25    1
    14     7     8   ar
    15     7    33    1
    16     8     9    1
    17     9    10   am
    18     9    34    1
    19    10    11    2
    20    10    12    1
    21    12    13    1
    22    12    35    1
    23    12    36    1
    24    13    14    1
    25    13    15    1
    26    13    16    1
    27    15    37    1
    28    15    38    1
    29    15    39    1
    30    16    17   am
    31    16    40    1
    32    17    18    2
    33    17    19    1
    34    19    24    1
    35    19    20    1
    36    19    41    1
    37    20    21    1
    38    20    42    1
    39    20    43    1
    40    21    22    1
    41    21    44    1
    42    21    45    1
    43    22    23    1
    44    22    46    1
    45    22    47    1
    46    23    24    1
    47    23    48    1
    48    23    49    1
    49    24    50    1
    50    24    51    1
    51    25    26    1
    52    26    27    1
    53    26    52    1
    54    26    53    1
    55    27    28    1
    56    27    54    1
    57    27    55    1
@<TRIPOS>SUBSTRUCTURE
     1 ZINC000066361645        1 TEMP              0 ****  ****    0 ROOT


##########                                Name:    ZINC001369071670
##########                DOCK_Rotatable_Bonds:                   8
##########                         Heavy_Atoms:                  24
##########                    Molecular_Weight:             335.366
##########                DOCK_Rotatable_Bonds:                   8
##########                       Formal_Charge:        -2.90573e-07
##########                     HBond_Acceptors:                  10
##########                        HBond_Donors:                   1
##########                         Heavy_Atoms:                  24
##########                          Grid_Score:          -32.750401
##########                     Grid_vdw_energy:          -32.513016
##########                      Grid_es_energy:           -0.237384
##########           Internal_energy_repulsive:            9.830752

@<TRIPOS>MOLECULE
ZINC001369071670
 45 47 1 0 0
SMALL
USER_CHARGES


@<TRIPOS>ATOM
      1 C1        -11.8840   -3.6796   57.2544 C.3     1  ZINC001369071670   -0.0800
      2 C2        -11.8606   -3.1394   55.8477 C.2     1  ZINC001369071670    0.0000
      3 C3        -12.8911   -2.5669   55.1841 C.2     1  ZINC001369071670   -0.2300
      4 C4        -12.3430   -2.2408   53.9162 C.2     1  ZINC001369071670    0.2100
      5 O5        -12.9846   -1.6420   52.8812 O.3     1  ZINC001369071670   -0.2600
      6 C6        -12.1768   -1.1815   51.7962 C.3     1  ZINC001369071670    0.0400
      7 C7        -11.4699    0.0869   52.1991 C.2     1  ZINC001369071670    0.5200
      8 O8        -12.0346    1.1553   52.0946 O.2     1  ZINC001369071670   -0.5100
      9 N9        -10.2104    0.0342   52.6758 N.am    1  ZINC001369071670   -0.7200
     10 C10        -9.5239    1.2672   53.0692 C.3     1  ZINC001369071670    0.1500
     11 H11        -9.8176    2.0760   52.4001 H       1  ZINC001369071670    0.0900
     12 C12        -9.9077    1.6287   54.5055 C.3     1  ZINC001369071670   -0.1700
     13 C13        -8.0106    1.0582   52.9830 C.3     1  ZINC001369071670   -0.1200
     14 C14        -7.4300    1.3053   51.5789 C.3     1  ZINC001369071670    0.0100
     15 N15        -6.3185    1.9971   52.2683 N.3     1  ZINC001369071670   -0.4800
     16 C16        -5.9543    3.2360   51.5680 C.3     1  ZINC001369071670    0.1000
     17 C17        -4.7540    2.9837   50.6924 C.2     1  ZINC001369071670    0.1900
     18 N18        -4.7341    2.9514   49.3823 N.2     1  ZINC001369071670   -0.3000
     19 N19        -3.5252    2.7088   49.0086 N.2     1  ZINC001369071670   -0.0700
     20 N20        -2.7735    2.5854   50.0463 N.2     1  ZINC001369071670   -0.0900
     21 N21        -3.4933    2.7535   51.1038 N.pl3   1  ZINC001369071670   -0.3000
     22 C22        -3.0279    2.6953   52.4916 C.3     1  ZINC001369071670    0.0800
     23 C23        -7.1898    2.2812   53.4301 C.3     1  ZINC001369071670    0.0200
     24 N24       -11.0971   -2.6321   53.9452 N.2     1  ZINC001369071670   -0.4100
     25 O25       -10.8128   -3.1270   55.0112 O.3     1  ZINC001369071670    0.1000
     26 H26       -10.8999   -4.0730   57.5089 H       1  ZINC001369071670    0.0900
     27 H27       -12.1454   -2.8792   57.9467 H       1  ZINC001369071670    0.1000
     28 H28       -12.6235   -4.4772   57.3251 H       1  ZINC001369071670    0.1000
     29 H29       -13.8975   -2.3974   55.5373 H       1  ZINC001369071670    0.1800
     30 H30       -11.4396   -1.9436   51.5431 H       1  ZINC001369071670    0.1000
     31 H31       -12.8089   -0.9857   50.9301 H       1  ZINC001369071670    0.1000
     32 H32        -9.7584   -0.8200   52.7584 H       1  ZINC001369071670    0.4000
     33 H33       -10.9858    1.7776   54.5668 H       1  ZINC001369071670    0.0600
     34 H34        -9.6140    0.8199   55.1746 H       1  ZINC001369071670    0.0600
     35 H35        -9.3969    2.5460   54.7982 H       1  ZINC001369071670    0.0700
     36 H36        -7.6847    0.1217   53.4356 H       1  ZINC001369071670    0.1100
     37 H37        -7.1273    0.3946   51.0622 H       1  ZINC001369071670    0.1000
     38 H38        -8.0407    1.9635   50.9608 H       1  ZINC001369071670    0.0800
     39 H39        -6.7911    3.5643   50.9516 H       1  ZINC001369071670    0.1000
     40 H40        -5.7154    4.0093   52.2981 H       1  ZINC001369071670    0.0900
     41 H41        -2.7127    3.6887   52.8112 H       1  ZINC001369071670    0.1000
     42 H42        -3.8381    2.3476   53.1324 H       1  ZINC001369071670    0.1000
     43 H43        -2.1862    2.0064   52.5639 H       1  ZINC001369071670    0.1100
     44 H44        -7.7302    3.2247   53.3533 H       1  ZINC001369071670    0.0800
     45 H45        -6.6951    2.1501   54.3925 H       1  ZINC001369071670    0.1000
@<TRIPOS>BOND
     1     1     2    1
     2     1    26    1
     3     1    27    1
     4     1    28    1
     5     2    25    1
     6     2     3    2
     7     3     4    1
     8     3    29    1
     9     4     5    1
    10     4    24    2
    11     5     6    1
    12     6     7    1
    13     6    30    1
    14     6    31    1
    15     7     8    2
    16     7     9   am
    17     9    10    1
    18     9    32    1
    19    10    11    1
    20    10    12    1
    21    10    13    1
    22    12    33    1
    23    12    34    1
    24    12    35    1
    25    13    23    1
    26    13    14    1
    27    13    36    1
    28    14    15    1
    29    14    37    1
    30    14    38    1
    31    15    16    1
    32    15    23    1
    33    16    17    1
    34    16    39    1
    35    16    40    1
    36    17    21    1
    37    17    18    2
    38    18    19    1
    39    19    20    2
    40    20    21    1
    41    21    22    1
    42    22    41    1
    43    22    42    1
    44    22    43    1
    45    23    44    1
    46    23    45    1
    47    24    25    1
@<TRIPOS>SUBSTRUCTURE
     1 ZINC001369071670        1 TEMP              0 ****  ****    0 ROOT


##########                                Name:    ZINC000185180600
##########                DOCK_Rotatable_Bonds:                   7
##########                         Heavy_Atoms:                  26
##########                    Molecular_Weight:             395.953
##########                DOCK_Rotatable_Bonds:                   7
##########                       Formal_Charge:          0.00999977
##########                     HBond_Acceptors:                   7
##########                        HBond_Donors:                   0
##########                         Heavy_Atoms:                  26
##########                          Grid_Score:          -32.694366
##########                     Grid_vdw_energy:          -32.152283
##########                      Grid_es_energy:           -0.542085
##########           Internal_energy_repulsive:           28.870352

@<TRIPOS>MOLECULE
ZINC000185180600
 52 53 1 0 0
SMALL
USER_CHARGES


@<TRIPOS>ATOM
      1 C1          0.0902    4.9465   51.7192 C.3     1  ZINC000185180600   -0.1500
      2 C2         -0.7502    3.7225   51.3500 C.3     1  ZINC000185180600   -0.0900
      3 C3         -0.3925    2.5596   52.2777 C.3     1  ZINC000185180600   -0.1500
      4 C4         -2.2351    4.0584   51.5027 C.3     1  ZINC000185180600   -0.1300
      5 C5         -3.0754    2.8340   51.1348 C.3     1  ZINC000185180600    0.1300
      6 H6         -2.7235    1.9694   51.6973 H       1  ZINC000185180600    0.1100
      7 C7         -2.9425    2.5559   49.6361 C.3     1  ZINC000185180600   -0.1600
      8 N8         -4.4805    3.0901   51.4612 N.am    1  ZINC000185180600   -0.6000
      9 C9         -5.0113    4.4539   51.3940 C.3     1  ZINC000185180600    0.0700
     10 C10        -5.2847    2.0710   51.8232 C.2     1  ZINC000185180600    0.5400
     11 O11        -4.8449    0.9422   51.8802 O.2     1  ZINC000185180600   -0.5300
     12 C12        -6.7305    2.3341   52.1572 C.3     1  ZINC000185180600   -0.5000
     13 S13        -7.5848    0.7572   52.4296 S.o     1  ZINC000185180600    1.3200
     14 O14        -7.5798    0.0017   51.2260 O.2     1  ZINC000185180600   -0.8000
     15 C15        -9.2813    1.2730   52.8125 C.3     1  ZINC000185180600   -0.3900
     16 C16       -10.1310    0.0551   53.0682 C.2     1  ZINC000185180600    0.1000
     17 N17       -10.8074   -0.1926   54.1610 N.2     1  ZINC000185180600   -0.2800
     18 N18       -11.4625   -1.4207   54.0017 N.pl3   1  ZINC000185180600   -0.3200
     19 C19       -12.2906   -2.0429   54.9467 C.ar    1  ZINC000185180600    0.1700
     20 C20       -11.7617   -2.4815   56.1531 C.ar    1  ZINC000185180600   -0.1300
     21 C21       -12.5794   -3.0942   57.0823 C.ar    1  ZINC000185180600   -0.0800
     22 C22       -13.9249   -3.2715   56.8114 C.ar    1  ZINC000185180600   -0.0500
     23 Cl23      -14.9502   -4.0419   57.9815 Cl      1  ZINC000185180600   -0.0600
     24 C24       -14.4545   -2.8350   55.6097 C.ar    1  ZINC000185180600   -0.0800
     25 C25       -13.6420   -2.2163   54.6799 C.ar    1  ZINC000185180600   -0.1100
     26 C26       -11.1547   -1.8997   52.7753 C.2     1  ZINC000185180600    0.0600
     27 C27       -10.3376   -1.0026   52.1760 C.2     1  ZINC000185180600   -0.2500
     28 H28         1.1481    4.7072   51.6106 H       1  ZINC000185180600    0.0500
     29 H29        -0.1646    5.7750   51.0585 H       1  ZINC000185180600    0.0600
     30 H30        -0.1140    5.2294   52.7519 H       1  ZINC000185180600    0.0500
     31 H31        -0.5460    3.4395   50.3174 H       1  ZINC000185180600    0.0700
     32 H32         0.6436    2.2658   52.1093 H       1  ZINC000185180600    0.0500
     33 H33        -0.5181    2.8702   53.3150 H       1  ZINC000185180600    0.0500
     34 H34        -1.0481    1.7141   52.0698 H       1  ZINC000185180600    0.0500
     35 H35        -2.4390    4.3423   52.5351 H       1  ZINC000185180600    0.0700
     36 H36        -2.4902    4.8863   50.8411 H       1  ZINC000185180600    0.0800
     37 H37        -3.2945    3.4206   49.0735 H       1  ZINC000185180600    0.0600
     38 H38        -1.8971    2.3654   49.3933 H       1  ZINC000185180600    0.0700
     39 H39        -3.5413    1.6836   49.3739 H       1  ZINC000185180600    0.0600
     40 H40        -5.3986    4.6441   50.3931 H       1  ZINC000185180600    0.0600
     41 H41        -5.8146    4.5674   52.1220 H       1  ZINC000185180600    0.0700
     42 H42        -4.2158    5.1648   51.6169 H       1  ZINC000185180600    0.0800
     43 H43        -6.7901    2.9404   53.0611 H       1  ZINC000185180600    0.1500
     44 H44        -7.2033    2.8656   51.3314 H       1  ZINC000185180600    0.1200
     45 H45        -9.2770    1.9059   53.7000 H       1  ZINC000185180600    0.1400
     46 H46        -9.6903    1.8310   51.9702 H       1  ZINC000185180600    0.1000
     47 H47       -10.7115   -2.3441   56.3645 H       1  ZINC000185180600    0.1400
     48 H48       -12.1683   -3.4356   58.0208 H       1  ZINC000185180600    0.1500
     49 H49       -15.5047   -2.9748   55.4004 H       1  ZINC000185180600    0.1400
     50 H50       -14.0558   -1.8759   53.7421 H       1  ZINC000185180600    0.1500
     51 H51       -11.5023   -2.8291   52.3487 H       1  ZINC000185180600    0.1800
     52 H52        -9.9138   -1.0913   51.1866 H       1  ZINC000185180600    0.1700
@<TRIPOS>BOND
     1     1     2    1
     2     1    28    1
     3     1    29    1
     4     1    30    1
     5     2     3    1
     6     2     4    1
     7     2    31    1
     8     3    32    1
     9     3    33    1
    10     3    34    1
    11     4     5    1
    12     4    35    1
    13     4    36    1
    14     5     6    1
    15     5     7    1
    16     5     8    1
    17     7    37    1
    18     7    38    1
    19     7    39    1
    20     8     9    1
    21     8    10   am
    22     9    40    1
    23     9    41    1
    24     9    42    1
    25    10    11    2
    26    10    12    1
    27    12    13    1
    28    12    43    1
    29    12    44    1
    30    13    14    2
    31    13    15    1
    32    15    16    1
    33    15    45    1
    34    15    46    1
    35    16    27    1
    36    16    17    2
    37    17    18    1
    38    18    19    1
    39    18    26    1
    40    19    25   ar
    41    19    20   ar
    42    20    21   ar
    43    20    47    1
    44    21    22   ar
    45    21    48    1
    46    22    23    1
    47    22    24   ar
    48    24    25   ar
    49    24    49    1
    50    25    50    1
    51    26    27    2
    52    26    51    1
    53    27    52    1
@<TRIPOS>SUBSTRUCTURE
     1 ZINC000185180600        1 TEMP              0 ****  ****    0 ROOT


##########                                Name:    ZINC000499369364
##########                DOCK_Rotatable_Bonds:                   9
##########                         Heavy_Atoms:                  25
##########                    Molecular_Weight:             384.527
##########                DOCK_Rotatable_Bonds:                   9
##########                       Formal_Charge:        -5.88596e-07
##########                     HBond_Acceptors:                  10
##########                        HBond_Donors:                   1
##########                         Heavy_Atoms:                  25
##########                          Grid_Score:          -32.679562
##########                     Grid_vdw_energy:          -31.731024
##########                      Grid_es_energy:           -0.948538
##########           Internal_energy_repulsive:           25.089172

@<TRIPOS>MOLECULE
ZINC000499369364
 49 51 1 0 0
SMALL
USER_CHARGES


@<TRIPOS>ATOM
      1 C1        -11.4874   -0.9960   56.8248 C.3     1  ZINC000499369364   -0.1500
      2 C2        -11.4875   -2.3588   56.1293 C.3     1  ZINC000499369364   -0.1000
      3 C3        -11.3922   -3.4674   57.1794 C.3     1  ZINC000499369364   -0.1500
      4 C4        -12.7818   -2.5233   55.3301 C.3     1  ZINC000499369364    0.1500
      5 H5        -12.8838   -3.5612   55.0132 H       1  ZINC000499369364    0.0900
      6 C6        -13.9750   -2.1380   56.2068 C.3     1  ZINC000499369364   -0.1700
      7 N7        -12.7414   -1.6545   54.1511 N.am    1  ZINC000499369364   -0.7200
      8 C8        -12.2105   -2.1075   52.9980 C.2     1  ZINC000499369364    0.5100
      9 O9        -11.7677   -3.2349   52.9360 O.2     1  ZINC000499369364   -0.5100
     10 C10       -12.1672   -1.2133   51.7858 C.3     1  ZINC000499369364    0.1200
     11 H11       -11.7819   -1.7863   50.9424 H       1  ZINC000499369364    0.1200
     12 C12       -13.6053   -0.7515   51.4575 C.3     1  ZINC000499369364   -0.0800
     13 S13       -13.6403    0.9122   52.2476 S.3     1  ZINC000499369364   -0.2400
     14 C14       -11.8551    1.2362   51.9371 C.3     1  ZINC000499369364    0.1400
     15 N15       -11.2608   -0.1068   52.0528 N.am    1  ZINC000499369364   -0.6000
     16 C16        -9.9677   -0.2993   52.3801 C.2     1  ZINC000499369364    0.5600
     17 O17        -9.5239   -1.4251   52.4620 O.2     1  ZINC000499369364   -0.5000
     18 C18        -9.0731    0.8843   52.6444 C.3     1  ZINC000499369364   -0.1500
     19 S19        -7.3477    0.4089   52.3739 S.3     1  ZINC000499369364    0.1300
     20 C20        -6.7989    1.7813   51.4148 C.2     1  ZINC000499369364    0.2000
     21 N21        -6.9695    1.9491   50.1213 N.2     1  ZINC000499369364   -0.3400
     22 N22        -6.4468    3.0580   49.7388 N.2     1  ZINC000499369364   -0.0300
     23 N23        -5.9131    3.6706   50.7397 N.2     1  ZINC000499369364   -0.0800
     24 N24        -6.1272    2.8647   51.8715 N.pl3   1  ZINC000499369364   -0.3300
     25 C25        -5.7060    3.1347   53.2483 C.3     1  ZINC000499369364    0.0500
     26 C26        -4.3461    3.8056   53.4524 C.3     1  ZINC000499369364   -0.1500
     27 C27        -5.6333    4.5976   53.6909 C.3     1  ZINC000499369364   -0.1600
     28 H28       -10.5654   -0.8788   57.3943 H       1  ZINC000499369364    0.0600
     29 H29       -11.5553   -0.2063   56.0767 H       1  ZINC000499369364    0.0600
     30 H30       -12.3414   -0.9322   57.4991 H       1  ZINC000499369364    0.0600
     31 H31       -10.6335   -2.4227   55.4550 H       1  ZINC000499369364    0.0800
     32 H32       -10.4701   -3.3502   57.7488 H       1  ZINC000499369364    0.0600
     33 H33       -12.2462   -3.4036   57.8537 H       1  ZINC000499369364    0.0600
     34 H34       -11.3924   -4.4383   56.6839 H       1  ZINC000499369364    0.0500
     35 H35       -13.8730   -1.1001   56.5236 H       1  ZINC000499369364    0.0600
     36 H36       -14.8971   -2.2551   55.6374 H       1  ZINC000499369364    0.0600
     37 H37       -14.0051   -2.7844   57.0840 H       1  ZINC000499369364    0.0700
     38 H38       -13.0966   -0.7532   54.2004 H       1  ZINC000499369364    0.4000
     39 H39       -13.7562   -0.6767   50.3805 H       1  ZINC000499369364    0.1200
     40 H40       -14.3424   -1.4152   51.9093 H       1  ZINC000499369364    0.1300
     41 H41       -11.7041    1.6425   50.9371 H       1  ZINC000499369364    0.1100
     42 H42       -11.4464    1.9062   52.6937 H       1  ZINC000499369364    0.1200
     43 H43        -9.3364    1.6971   51.9675 H       1  ZINC000499369364    0.1300
     44 H44        -9.2018    1.2140   53.6754 H       1  ZINC000499369364    0.1300
     45 H45        -6.0212    2.3999   53.9891 H       1  ZINC000499369364    0.1600
     46 H46        -3.7663    3.5121   54.3274 H       1  ZINC000499369364    0.1200
     47 H47        -3.7650    4.0460   52.5621 H       1  ZINC000499369364    0.1200
     48 H48        -5.8989    5.3590   52.9575 H       1  ZINC000499369364    0.1100
     49 H49        -5.9004    4.8251   54.7228 H       1  ZINC000499369364    0.1200
@<TRIPOS>BOND
     1     1     2    1
     2     1    28    1
     3     1    29    1
     4     1    30    1
     5     2     3    1
     6     2     4    1
     7     2    31    1
     8     3    32    1
     9     3    33    1
    10     3    34    1
    11     4     5    1
    12     4     6    1
    13     4     7    1
    14     6    35    1
    15     6    36    1
    16     6    37    1
    17     7     8   am
    18     7    38    1
    19     8     9    2
    20     8    10    1
    21    10    11    1
    22    10    15    1
    23    10    12    1
    24    12    13    1
    25    12    39    1
    26    12    40    1
    27    13    14    1
    28    14    15    1
    29    14    41    1
    30    14    42    1
    31    15    16   am
    32    16    17    2
    33    16    18    1
    34    18    19    1
    35    18    43    1
    36    18    44    1
    37    19    20    1
    38    20    24    1
    39    20    21    2
    40    21    22    1
    41    22    23    2
    42    23    24    1
    43    24    25    1
    44    25    27    1
    45    25    26    1
    46    25    45    1
    47    26    27    1
    48    26    46    1
    49    26    47    1
    50    27    48    1
    51    27    49    1
@<TRIPOS>SUBSTRUCTURE
     1 ZINC000499369364        1 TEMP              0 ****  ****    0 ROOT


##########                                Name:    ZINC000457806032
##########                DOCK_Rotatable_Bonds:                   8
##########                         Heavy_Atoms:                  24
##########                    Molecular_Weight:             387.911
##########                DOCK_Rotatable_Bonds:                   8
##########                       Formal_Charge:        -1.49012e-07
##########                     HBond_Acceptors:                   9
##########                        HBond_Donors:                   2
##########                         Heavy_Atoms:                  24
##########                          Grid_Score:          -32.645660
##########                     Grid_vdw_energy:          -32.800724
##########                      Grid_es_energy:            0.155063
##########           Internal_energy_repulsive:            7.574743

@<TRIPOS>MOLECULE
ZINC000457806032
 42 43 1 0 0
SMALL
USER_CHARGES


@<TRIPOS>ATOM
      1 C1         -5.3166    4.6446   50.5914 C.3     1  ZINC000457806032    0.0800
      2 N2         -4.5017    3.4470   50.8110 N.am    1  ZINC000457806032   -1.0100
      3 C3         -3.1273    3.3938   50.3069 C.3     1  ZINC000457806032    0.0900
      4 S4         -5.1343    2.1536   51.6291 S.o2    1  ZINC000457806032    2.7900
      5 O5         -4.1696    1.1138   51.5432 O.2     1  ZINC000457806032   -0.9700
      6 O6         -5.6235    2.6599   52.8634 O.2     1  ZINC000457806032   -0.9700
      7 N7         -6.4575    1.6354   50.7788 N.am    1  ZINC000457806032   -1.1300
      8 C8         -7.2361    0.4918   51.2608 C.3     1  ZINC000457806032    0.1100
      9 C9         -8.4105    0.9931   52.1035 C.3     1  ZINC000457806032    0.1100
     10 N10        -9.2514   -0.1415   52.4931 N.am    1  ZINC000457806032   -0.7300
     11 C11       -10.0509   -0.0478   53.5741 C.2     1  ZINC000457806032    0.5800
     12 O12       -10.0753    0.9792   54.2253 O.2     1  ZINC000457806032   -0.5300
     13 C13       -10.8948   -1.1888   53.9666 C.2     1  ZINC000457806032   -0.1500
     14 C14       -11.0732   -2.2856   53.1784 C.2     1  ZINC000457806032   -0.2200
     15 S15       -12.1075   -3.4082   53.9403 S.3     1  ZINC000457806032    0.2400
     16 C16       -12.2955   -2.3692   55.3444 C.2     1  ZINC000457806032   -0.1700
     17 C17       -13.1167   -2.6880   56.5323 C.ar    1  ZINC000457806032   -0.0100
     18 C18       -14.0409   -3.7324   56.4849 C.ar    1  ZINC000457806032   -0.0900
     19 C19       -14.8043   -4.0252   57.5960 C.ar    1  ZINC000457806032   -0.1000
     20 C20       -14.6552   -3.2847   58.7565 C.ar    1  ZINC000457806032   -0.0300
     21 Cl21      -15.6196   -3.6585   60.1506 Cl      1  ZINC000457806032   -0.0600
     22 C22       -13.7394   -2.2475   58.8095 C.ar    1  ZINC000457806032   -0.1000
     23 C23       -12.9664   -1.9492   57.7065 C.ar    1  ZINC000457806032   -0.1000
     24 C24       -11.5786   -1.2458   55.1821 C.2     1  ZINC000457806032   -0.0700
     25 H25        -5.8590    4.5475   49.6509 H       1  ZINC000457806032    0.0600
     26 H26        -6.0270    4.7559   51.4106 H       1  ZINC000457806032    0.0800
     27 H27        -4.6702    5.5212   50.5493 H       1  ZINC000457806032    0.0800
     28 H28        -2.4462    3.7747   51.0678 H       1  ZINC000457806032    0.0600
     29 H29        -2.8670    2.3623   50.0696 H       1  ZINC000457806032    0.0700
     30 H30        -3.0460    4.0050   49.4080 H       1  ZINC000457806032    0.0700
     31 H31        -6.7172    2.0892   49.9618 H       1  ZINC000457806032    0.4200
     32 H32        -7.6150   -0.0742   50.4098 H       1  ZINC000457806032    0.0700
     33 H33        -6.5997   -0.1503   51.8698 H       1  ZINC000457806032    0.0900
     34 H34        -8.0310    1.4880   52.9975 H       1  ZINC000457806032    0.0800
     35 H35        -9.0008    1.6996   51.5201 H       1  ZINC000457806032    0.0800
     36 H36        -9.2329   -0.9601   51.9730 H       1  ZINC000457806032    0.4000
     37 H37       -10.6227   -2.4249   52.2068 H       1  ZINC000457806032    0.1700
     38 H38       -14.1586   -4.3102   55.5801 H       1  ZINC000457806032    0.1400
     39 H39       -15.5199   -4.8333   57.5606 H       1  ZINC000457806032    0.1400
     40 H40       -13.6274   -1.6733   59.7173 H       1  ZINC000457806032    0.1400
     41 H41       -12.2522   -1.1402   57.7491 H       1  ZINC000457806032    0.1300
     42 H42       -11.5412   -0.4570   55.9189 H       1  ZINC000457806032    0.1600
@<TRIPOS>BOND
     1     1     2    1
     2     1    25    1
     3     1    26    1
     4     1    27    1
     5     2     3    1
     6     2     4   am
     7     3    28    1
     8     3    29    1
     9     3    30    1
    10     4     5    2
    11     4     6    2
    12     4     7   am
    13     7     8    1
    14     7    31    1
    15     8     9    1
    16     8    32    1
    17     8    33    1
    18     9    10    1
    19     9    34    1
    20     9    35    1
    21    10    11   am
    22    10    36    1
    23    11    12    2
    24    11    13    1
    25    13    24    1
    26    13    14    2
    27    14    15    1
    28    14    37    1
    29    15    16    1
    30    16    17    1
    31    16    24    2
    32    17    23   ar
    33    17    18   ar
    34    18    19   ar
    35    18    38    1
    36    19    20   ar
    37    19    39    1
    38    20    21    1
    39    20    22   ar
    40    22    23   ar
    41    22    40    1
    42    23    41    1
    43    24    42    1
@<TRIPOS>SUBSTRUCTURE
     1 ZINC000457806032        1 TEMP              0 ****  ****    0 ROOT


##########                                Name:    ZINC000981048968
##########                DOCK_Rotatable_Bonds:                   7
##########                         Heavy_Atoms:                  25
##########                    Molecular_Weight:             344.414
##########                DOCK_Rotatable_Bonds:                   7
##########                       Formal_Charge:                0.02
##########                     HBond_Acceptors:                   7
##########                        HBond_Donors:                   2
##########                         Heavy_Atoms:                  25
##########                          Grid_Score:          -32.638763
##########                     Grid_vdw_energy:          -32.153568
##########                      Grid_es_energy:           -0.485196
##########           Internal_energy_repulsive:            5.005809

@<TRIPOS>MOLECULE
ZINC000981048968
 49 52 1 0 0
SMALL
USER_CHARGES


@<TRIPOS>ATOM
      1 C1         -0.6444    2.9564   51.5228 C.3     1  ZINC000981048968   -0.0800
      2 C2         -2.0194    2.7362   50.9466 C.2     1  ZINC000981048968   -0.0100
      3 C3         -3.1621    2.7093   51.6494 C.2     1  ZINC000981048968   -0.1600
      4 C4         -4.2327    2.4687   50.6708 C.2     1  ZINC000981048968   -0.2300
      5 C5         -5.6770    2.3541   50.9406 C.2     1  ZINC000981048968    0.5900
      6 O6         -6.4701    2.3591   50.0187 O.2     1  ZINC000981048968   -0.5300
      7 N7         -6.1189    2.2439   52.2092 N.am    1  ZINC000981048968   -0.7300
      8 C8         -7.5548    2.1317   52.4775 C.3     1  ZINC000981048968    0.1500
      9 H9         -8.1100    2.6908   51.7242 H       1  ZINC000981048968    0.0900
     10 C10        -7.8605    2.7019   53.8640 C.3     1  ZINC000981048968   -0.1300
     11 C11        -9.3600    2.5848   54.1443 C.3     1  ZINC000981048968   -0.1200
     12 C12        -9.7746    1.1128   54.0954 C.3     1  ZINC000981048968   -0.1100
     13 C13        -9.4689    0.5427   52.7089 C.3     1  ZINC000981048968    0.1000
     14 H14       -10.0240    1.1018   51.9556 H       1  ZINC000981048968    0.0500
     15 N15        -9.8669   -0.8705   52.6619 N.3     1  ZINC000981048968   -0.6800
     16 C16       -11.1687   -1.0292   51.9999 C.3     1  ZINC000981048968    0.1500
     17 C17       -12.1906   -1.4926   53.0058 C.2     1  ZINC000981048968    0.1800
     18 N18       -13.3726   -0.9854   53.1908 N.2     1  ZINC000981048968   -0.3800
     19 O19       -13.9521   -1.5823   54.0736 O.3     1  ZINC000981048968    0.0800
     20 C20       -13.1712   -2.5565   54.5500 C.2     1  ZINC000981048968    0.2100
     21 C21       -13.5164   -3.5260   55.6509 C.3     1  ZINC000981048968   -0.0800
     22 C22       -14.4209   -3.0226   56.7776 C.3     1  ZINC000981048968   -0.1600
     23 C23       -14.9663   -4.0064   55.7403 C.3     1  ZINC000981048968   -0.1500
     24 N24       -12.0490   -2.5109   53.8731 N.2     1  ZINC000981048968   -0.4600
     25 C25        -7.9694    0.6598   52.4286 C.3     1  ZINC000981048968   -0.1300
     26 C26        -3.6098    2.3747   49.4608 C.2     1  ZINC000981048968    0.0200
     27 O27        -2.2970    2.5415   49.6480 O.3     1  ZINC000981048968   -0.1700
     28 H28         0.0936    2.9329   50.7210 H       1  ZINC000981048968    0.0800
     29 H29        -0.6097    3.9257   52.0201 H       1  ZINC000981048968    0.0900
     30 H30        -0.4224    2.1698   52.2440 H       1  ZINC000981048968    0.0900
     31 H31        -3.2729    2.8377   52.7160 H       1  ZINC000981048968    0.1600
     32 H32        -5.4863    2.2387   52.9444 H       1  ZINC000981048968    0.4000
     33 H33        -7.3054    2.1428   54.6173 H       1  ZINC000981048968    0.0700
     34 H34        -7.5652    3.7505   53.8988 H       1  ZINC000981048968    0.0700
     35 H35        -9.5779    2.9910   55.1320 H       1  ZINC000981048968    0.0700
     36 H36        -9.9152    3.1438   53.3910 H       1  ZINC000981048968    0.0600
     37 H37        -9.2194    0.5538   54.8486 H       1  ZINC000981048968    0.0700
     38 H38       -10.8429    1.0294   54.2950 H       1  ZINC000981048968    0.0700
     39 H39        -9.1602   -1.4304   52.2088 H       1  ZINC000981048968    0.3500
     40 H40       -11.4807   -0.0736   51.5786 H       1  ZINC000981048968    0.1100
     41 H41       -11.0831   -1.7673   51.2025 H       1  ZINC000981048968    0.0600
     42 H42       -12.7334   -4.2373   55.9135 H       1  ZINC000981048968    0.1500
     43 H43       -14.2331   -3.4027   57.7817 H       1  ZINC000981048968    0.1200
     44 H44       -14.7663   -1.9902   56.7225 H       1  ZINC000981048968    0.1100
     45 H45       -15.6704   -3.6211   55.0029 H       1  ZINC000981048968    0.1000
     46 H46       -15.1371   -5.0336   56.0622 H       1  ZINC000981048968    0.1200
     47 H47        -7.7515    0.2536   51.4409 H       1  ZINC000981048968    0.0700
     48 H48        -7.4142    0.1008   53.1818 H       1  ZINC000981048968    0.0800
     49 H49        -4.0954    2.1989   48.5122 H       1  ZINC000981048968    0.2100
@<TRIPOS>BOND
     1     1     2    1
     2     1    28    1
     3     1    29    1
     4     1    30    1
     5     2    27    1
     6     2     3    2
     7     3     4    1
     8     3    31    1
     9     4     5    1
    10     4    26    2
    11     5     6    2
    12     5     7   am
    13     7     8    1
    14     7    32    1
    15     8     9    1
    16     8    25    1
    17     8    10    1
    18    10    11    1
    19    10    33    1
    20    10    34    1
    21    11    12    1
    22    11    35    1
    23    11    36    1
    24    12    13    1
    25    12    37    1
    26    12    38    1
    27    13    14    1
    28    13    15    1
    29    13    25    1
    30    15    16    1
    31    15    39    1
    32    16    17    1
    33    16    40    1
    34    16    41    1
    35    17    24    1
    36    17    18    2
    37    18    19    1
    38    19    20    1
    39    20    21    1
    40    20    24    2
    41    21    23    1
    42    21    22    1
    43    21    42    1
    44    22    23    1
    45    22    43    1
    46    22    44    1
    47    23    45    1
    48    23    46    1
    49    25    47    1
    50    25    48    1
    51    26    27    1
    52    26    49    1
@<TRIPOS>SUBSTRUCTURE
     1 ZINC000981048968        1 TEMP              0 ****  ****    0 ROOT


##########                                Name:    ZINC000807524472
##########                DOCK_Rotatable_Bonds:                   9
##########                         Heavy_Atoms:                  28
##########                    Molecular_Weight:             410.534
##########                DOCK_Rotatable_Bonds:                   9
##########                       Formal_Charge:           0.0200006
##########                     HBond_Acceptors:                   8
##########                        HBond_Donors:                   0
##########                         Heavy_Atoms:                  28
##########                          Grid_Score:          -32.604294
##########                     Grid_vdw_energy:          -32.286259
##########                      Grid_es_energy:           -0.318033
##########           Internal_energy_repulsive:           14.557700

@<TRIPOS>MOLECULE
ZINC000807524472
 58 60 1 0 0
SMALL
USER_CHARGES


@<TRIPOS>ATOM
      1 C1          3.0781    1.0833   50.1021 C.3     1  ZINC000807524472   -0.1500
      2 C2          1.9386    1.3130   51.0972 C.3     1  ZINC000807524472    0.0600
      3 O3          0.9301    2.1216   50.4881 O.3     1  ZINC000807524472   -0.3800
      4 C4         -0.1861    2.3961   51.3371 C.3     1  ZINC000807524472    0.0600
      5 C5         -1.2242    3.2140   50.5663 C.3     1  ZINC000807524472    0.0700
      6 O6         -2.2319    3.7084   51.4874 O.3     1  ZINC000807524472   -0.3500
      7 C7         -3.1712    2.8321   51.8948 C.2     1  ZINC000807524472    0.5000
      8 O8         -3.3308    1.7889   51.2923 O.2     1  ZINC000807524472   -0.4600
      9 C9         -4.0043    3.1388   53.0701 C.ar    1  ZINC000807524472   -0.1200
     10 C10        -3.4217    3.6607   54.2283 C.ar    1  ZINC000807524472    0.0400
     11 C11        -4.2067    3.9459   55.3239 C.ar    1  ZINC000807524472   -0.7000
     12 S12        -3.4694    4.6044   56.7825 S.o2    1  ZINC000807524472    2.6900
     13 O13        -2.8968    5.8518   56.4146 O.2     1  ZINC000807524472   -0.9500
     14 O14        -4.4339    4.4668   57.8169 O.2     1  ZINC000807524472   -0.9500
     15 N15        -2.2071    3.6110   57.1851 N.am    1  ZINC000807524472   -0.9900
     16 C16        -0.8364    4.1348   57.2590 C.3     1  ZINC000807524472    0.1200
     17 C17        -0.2479    3.7848   58.6294 C.3     1  ZINC000807524472   -0.1400
     18 C18        -0.3571    2.2753   58.8566 C.3     1  ZINC000807524472   -0.1200
     19 C19        -1.8302    1.8609   58.8433 C.3     1  ZINC000807524472   -0.1400
     20 C20        -2.4374    2.1904   57.4811 C.3     1  ZINC000807524472    0.1200
     21 C21        -5.5731    3.7179   55.2850 C.ar    1  ZINC000807524472    0.0200
     22 C22        -6.1638    3.2027   54.1493 C.ar    1  ZINC000807524472   -0.1800
     23 C23        -5.3902    2.9140   53.0321 C.ar    1  ZINC000807524472    0.2000
     24 N24        -5.9821    2.3960   51.8882 N.3     1  ZINC000807524472   -0.4800
     25 C25        -6.6532    1.1024   52.1753 C.3     1  ZINC000807524472    0.0400
     26 C26        -7.6564    0.9556   51.0037 C.3     1  ZINC000807524472   -0.1200
     27 C27        -8.1434    2.4060   50.7819 C.3     1  ZINC000807524472   -0.1300
     28 C28        -7.0416    3.2970   51.3851 C.3     1  ZINC000807524472    0.0400
     29 H29         3.5070    2.0428   49.8132 H       1  ZINC000807524472    0.0600
     30 H30         3.8473    0.4665   50.5667 H       1  ZINC000807524472    0.0700
     31 H31         2.6915    0.5771   49.2176 H       1  ZINC000807524472    0.0700
     32 H32         1.5096    0.3535   51.3860 H       1  ZINC000807524472    0.0500
     33 H33         2.3252    1.8192   51.9817 H       1  ZINC000807524472    0.0500
     34 H34        -0.6331    1.4574   51.6644 H       1  ZINC000807524472    0.0600
     35 H35         0.1492    2.9615   52.2067 H       1  ZINC000807524472    0.0700
     36 H36        -0.7337    4.0561   50.0782 H       1  ZINC000807524472    0.0900
     37 H37        -1.6979    2.5834   49.8140 H       1  ZINC000807524472    0.0800
     38 H38        -2.3573    3.8400   54.2644 H       1  ZINC000807524472    0.1600
     39 H39        -0.2296    3.6826   56.4745 H       1  ZINC000807524472    0.0800
     40 H40        -0.8517    5.2175   57.1336 H       1  ZINC000807524472    0.0900
     41 H41         0.7999    4.0829   58.6623 H       1  ZINC000807524472    0.0800
     42 H42        -0.8009    4.3107   59.4078 H       1  ZINC000807524472    0.0700
     43 H43         0.1752    1.7494   58.0639 H       1  ZINC000807524472    0.0700
     44 H44         0.0832    2.0203   59.8205 H       1  ZINC000807524472    0.0700
     45 H45        -1.9085    0.7896   59.0283 H       1  ZINC000807524472    0.0800
     46 H46        -2.3683    2.4049   59.6196 H       1  ZINC000807524472    0.0700
     47 H47        -3.5084    1.9887   57.5001 H       1  ZINC000807524472    0.0900
     48 H48        -1.9623    1.5813   56.7123 H       1  ZINC000807524472    0.0800
     49 H49        -6.1796    3.9448   56.1493 H       1  ZINC000807524472    0.1500
     50 H50        -7.2293    3.0277   54.1274 H       1  ZINC000807524472    0.1400
     51 H51        -5.9320    0.2850   52.1689 H       1  ZINC000807524472    0.0900
     52 H52        -7.1792    1.1453   53.1290 H       1  ZINC000807524472    0.0500
     53 H53        -7.1560    0.5763   50.1127 H       1  ZINC000807524472    0.0800
     54 H54        -8.4870    0.3087   51.2858 H       1  ZINC000807524472    0.0800
     55 H55        -8.2535    2.6095   49.7167 H       1  ZINC000807524472    0.0800
     56 H56        -9.0886    2.5709   51.2990 H       1  ZINC000807524472    0.0700
     57 H57        -7.4489    3.8863   52.2067 H       1  ZINC000807524472    0.0500
     58 H58        -6.6353    3.9558   50.6177 H       1  ZINC000807524472    0.0900
@<TRIPOS>BOND
     1     1     2    1
     2     1    29    1
     3     1    30    1
     4     1    31    1
     5     2     3    1
     6     2    32    1
     7     2    33    1
     8     3     4    1
     9     4     5    1
    10     4    34    1
    11     4    35    1
    12     5     6    1
    13     5    36    1
    14     5    37    1
    15     6     7    1
    16     7     8    2
    17     7     9    1
    18     9    23   ar
    19     9    10   ar
    20    10    11   ar
    21    10    38    1
    22    11    12    1
    23    11    21   ar
    24    12    13    2
    25    12    14    2
    26    12    15   am
    27    15    20    1
    28    15    16    1
    29    16    17    1
    30    16    39    1
    31    16    40    1
    32    17    18    1
    33    17    41    1
    34    17    42    1
    35    18    19    1
    36    18    43    1
    37    18    44    1
    38    19    20    1
    39    19    45    1
    40    19    46    1
    41    20    47    1
    42    20    48    1
    43    21    22   ar
    44    21    49    1
    45    22    23   ar
    46    22    50    1
    47    23    24    1
    48    24    28    1
    49    24    25    1
    50    25    26    1
    51    25    51    1
    52    25    52    1
    53    26    27    1
    54    26    53    1
    55    26    54    1
    56    27    28    1
    57    27    55    1
    58    27    56    1
    59    28    57    1
    60    28    58    1
@<TRIPOS>SUBSTRUCTURE
     1 ZINC000807524472        1 TEMP              0 ****  ****    0 ROOT


##########                                Name:    ZINC000420486261
##########                DOCK_Rotatable_Bonds:                   7
##########                         Heavy_Atoms:                  26
##########                    Molecular_Weight:             353.378
##########                DOCK_Rotatable_Bonds:                   7
##########                       Formal_Charge:        -2.98023e-08
##########                     HBond_Acceptors:                   7
##########                        HBond_Donors:                   0
##########                         Heavy_Atoms:                  26
##########                          Grid_Score:          -32.603073
##########                     Grid_vdw_energy:          -29.654165
##########                      Grid_es_energy:           -2.948910
##########           Internal_energy_repulsive:            7.193075

@<TRIPOS>MOLECULE
ZINC000420486261
 45 47 1 0 0
SMALL
USER_CHARGES


@<TRIPOS>ATOM
      1 C1         -6.5438    2.2501   65.2761 C.3     1  ZINC000420486261    0.0400
      2 O2         -6.4553    1.1243   66.1889 O.3     1  ZINC000420486261   -0.3500
      3 C3         -7.4732    0.2427   66.1728 C.2     1  ZINC000420486261    0.5100
      4 O4         -7.4558   -0.7186   66.9145 O.2     1  ZINC000420486261   -0.4900
      5 C5         -8.6136    0.4455   65.2507 C.ar    1  ZINC000420486261   -0.0700
      6 C6         -9.7494    1.1532   65.6581 C.ar    1  ZINC000420486261   -0.0900
      7 C7        -10.7951    1.3226   64.7675 C.ar    1  ZINC000420486261    0.1100
      8 N8        -10.7357    0.8293   63.5496 N.ar    1  ZINC000420486261   -0.4200
      9 C9         -9.6799    0.1510   63.1172 C.ar    1  ZINC000420486261    0.1900
     10 C10        -9.6665   -0.3815   61.7364 C.2     1  ZINC000420486261    0.2200
     11 N11       -10.3933    0.0465   60.7227 N.2     1  ZINC000420486261   -0.4300
     12 C12       -10.0459   -0.7310   59.6756 C.2     1  ZINC000420486261    0.2200
     13 C13       -10.5884   -0.6433   58.2978 C.ar    1  ZINC000420486261   -0.0600
     14 C14       -10.0783    0.2948   57.4036 C.ar    1  ZINC000420486261   -0.0300
     15 C15       -10.5864    0.3725   56.1227 C.ar    1  ZINC000420486261   -0.1600
     16 C16       -11.6016   -0.4785   55.7227 C.ar    1  ZINC000420486261   -0.0600
     17 C17       -12.1151   -1.4128   56.6017 C.ar    1  ZINC000420486261   -0.2200
     18 C18       -11.6104   -1.5059   57.8891 C.ar    1  ZINC000420486261    0.1700
     19 O19       -12.1141   -2.4238   58.7540 O.3     1  ZINC000420486261   -0.2900
     20 C20       -13.5306   -2.4287   58.9424 C.3     1  ZINC000420486261    0.0600
     21 C21       -13.8588   -1.9408   60.3549 C.3     1  ZINC000420486261   -0.0900
     22 C22       -14.0609   -0.4243   60.3365 C.3     1  ZINC000420486261   -0.1500
     23 C23       -15.1396   -2.6200   60.8443 C.3     1  ZINC000420486261   -0.1500
     24 N24        -9.1415   -1.5766   60.1004 N.2     1  ZINC000420486261   -0.3400
     25 O25        -8.9084   -1.3881   61.2756 O.3     1  ZINC000420486261    0.1000
     26 C26        -8.5815   -0.0598   63.9483 C.ar    1  ZINC000420486261   -0.0700
     27 H27        -5.6623    2.8809   65.3906 H       1  ZINC000420486261    0.1100
     28 H28        -6.5975    1.8833   64.2510 H       1  ZINC000420486261    0.0700
     29 H29        -7.4381    2.8311   65.5014 H       1  ZINC000420486261    0.0700
     30 H30        -9.8097    1.5622   66.6559 H       1  ZINC000420486261    0.1600
     31 H31       -11.6741    1.8682   65.0775 H       1  ZINC000420486261    0.1800
     32 H32        -9.2861    0.9609   57.7122 H       1  ZINC000420486261    0.1400
     33 H33       -10.1904    1.1005   55.4301 H       1  ZINC000420486261    0.1300
     34 H34       -11.9947   -0.4118   54.7190 H       1  ZINC000420486261    0.1300
     35 H35       -12.9074   -2.0743   56.2838 H       1  ZINC000420486261    0.1400
     36 H36       -13.9966   -1.7673   58.2121 H       1  ZINC000420486261    0.0600
     37 H37       -13.9111   -3.4415   58.8102 H       1  ZINC000420486261    0.0600
     38 H38       -13.0365   -2.1898   61.0255 H       1  ZINC000420486261    0.0800
     39 H39       -14.8832   -0.1754   59.6659 H       1  ZINC000420486261    0.0600
     40 H40       -14.2946   -0.0767   61.3428 H       1  ZINC000420486261    0.0700
     41 H41       -13.1484    0.0596   59.9879 H       1  ZINC000420486261    0.0600
     42 H42       -15.9619   -2.3710   60.1736 H       1  ZINC000420486261    0.0500
     43 H43       -14.9956   -3.7003   60.8573 H       1  ZINC000420486261    0.0600
     44 H44       -15.3734   -2.2724   61.8506 H       1  ZINC000420486261    0.0600
     45 H45        -7.7232   -0.6116   63.5945 H       1  ZINC000420486261    0.1600
@<TRIPOS>BOND
     1     1     2    1
     2     1    27    1
     3     1    28    1
     4     1    29    1
     5     2     3    1
     6     3     4    2
     7     3     5    1
     8     5    26   ar
     9     5     6   ar
    10     6     7   ar
    11     6    30    1
    12     7     8   ar
    13     7    31    1
    14     8     9   ar
    15     9    10    1
    16     9    26   ar
    17    10    25    1
    18    10    11    2
    19    11    12    1
    20    12    13    1
    21    12    24    2
    22    13    18   ar
    23    13    14   ar
    24    14    15   ar
    25    14    32    1
    26    15    16   ar
    27    15    33    1
    28    16    17   ar
    29    16    34    1
    30    17    18   ar
    31    17    35    1
    32    18    19    1
    33    19    20    1
    34    20    21    1
    35    20    36    1
    36    20    37    1
    37    21    22    1
    38    21    23    1
    39    21    38    1
    40    22    39    1
    41    22    40    1
    42    22    41    1
    43    23    42    1
    44    23    43    1
    45    23    44    1
    46    24    25    1
    47    26    45    1
@<TRIPOS>SUBSTRUCTURE
     1 ZINC000420486261        1 TEMP              0 ****  ****    0 ROOT


##########                                Name:    ZINC000980108339
##########                DOCK_Rotatable_Bonds:                   9
##########                         Heavy_Atoms:                  25
##########                    Molecular_Weight:             348.445
##########                DOCK_Rotatable_Bonds:                   9
##########                       Formal_Charge:          -0.0100001
##########                     HBond_Acceptors:                   7
##########                        HBond_Donors:                   3
##########                         Heavy_Atoms:                  25
##########                          Grid_Score:          -32.553352
##########                     Grid_vdw_energy:          -31.143503
##########                      Grid_es_energy:           -1.409847
##########           Internal_energy_repulsive:           10.592871

@<TRIPOS>MOLECULE
ZINC000980108339
 53 56 1 0 0
SMALL
USER_CHARGES


@<TRIPOS>ATOM
      1 C1        -13.9351   -3.6895   57.1702 C.3     1  ZINC000980108339    0.1200
      2 N2        -12.8334   -3.4870   56.2259 N.am    1  ZINC000980108339   -0.6400
      3 C3        -12.9756   -3.3402   54.7696 C.3     1  ZINC000980108339    0.1100
      4 C4        -11.5280   -3.1560   54.2741 C.3     1  ZINC000980108339    0.1000
      5 H5        -11.2508   -3.9617   53.5944 H       1  ZINC000980108339    0.1200
      6 C6        -11.3661   -1.8179   53.6000 C.2     1  ZINC000980108339    0.5000
      7 O7        -11.6603   -1.6885   52.4306 O.2     1  ZINC000980108339   -0.5200
      8 N8        -10.8943   -0.7651   54.2967 N.am    1  ZINC000980108339   -0.7200
      9 C9        -10.7353    0.5352   53.6410 C.3     1  ZINC000980108339    0.1300
     10 C10        -9.2740    0.7231   53.2283 C.3     1  ZINC000980108339   -0.1200
     11 H11        -8.5824    0.6298   54.0657 H       1  ZINC000980108339    0.1000
     12 C12        -8.8692   -0.1081   51.9995 C.3     1  ZINC000980108339   -0.1400
     13 C13        -8.0620    1.1159   51.5356 C.3     1  ZINC000980108339    0.1200
     14 H14        -8.1245    1.2992   50.4629 H       1  ZINC000980108339    0.1100
     15 N15        -6.6855    1.1353   52.0367 N.am    1  ZINC000980108339   -0.7200
     16 C16        -5.7253    1.7795   51.3442 C.2     1  ZINC000980108339    0.5200
     17 O17        -6.0011    2.3444   50.3070 O.2     1  ZINC000980108339   -0.5300
     18 C18        -4.3089    1.7980   51.8588 C.3     1  ZINC000980108339   -0.1100
     19 C19        -3.5912    3.0423   51.3322 C.3     1  ZINC000980108339   -0.1300
     20 H20        -3.8489    3.9786   51.8273 H       1  ZINC000980108339    0.1200
     21 C21        -3.2791    3.0975   49.8354 C.3     1  ZINC000980108339   -0.1700
     22 C22        -2.1505    2.8739   50.8452 C.3     1  ZINC000980108339   -0.1200
     23 H23        -1.7141    1.8766   50.8996 H       1  ZINC000980108339    0.1000
     24 C24        -1.1816    4.0325   51.0896 C.3     1  ZINC000980108339   -0.1300
     25 C25        -1.2303    4.7176   52.4569 C.3     1  ZINC000980108339   -0.1800
     26 C26        -0.0529    3.8088   52.0979 C.3     1  ZINC000980108339   -0.1800
     27 C27        -9.0330    1.9739   52.3668 C.3     1  ZINC000980108339   -0.1400
     28 N28       -10.7240   -3.2185   55.5038 N.am    1  ZINC000980108339   -0.7200
     29 C29       -11.5373   -3.4005   56.5526 C.2     1  ZINC000980108339    0.7000
     30 O30       -11.1345   -3.4883   57.6964 O.2     1  ZINC000980108339   -0.5800
     31 H31       -13.5376   -3.7595   58.1827 H       1  ZINC000980108339    0.0900
     32 H32       -14.6257   -2.8484   57.1085 H       1  ZINC000980108339    0.0600
     33 H33       -14.4617   -4.6110   56.9220 H       1  ZINC000980108339    0.0600
     34 H34       -13.4171   -4.2376   54.3360 H       1  ZINC000980108339    0.1000
     35 H35       -13.5765   -2.4629   54.5304 H       1  ZINC000980108339    0.0900
     36 H36       -10.6602   -0.8682   55.2324 H       1  ZINC000980108339    0.4000
     37 H37       -11.3707    0.5762   52.7564 H       1  ZINC000980108339    0.0700
     38 H38       -11.0225    1.3280   54.3317 H       1  ZINC000980108339    0.0700
     39 H39        -8.2510   -0.9727   52.2414 H       1  ZINC000980108339    0.0800
     40 H40        -9.7048   -0.3540   51.3441 H       1  ZINC000980108339    0.1000
     41 H41        -6.4651    0.6845   52.8668 H       1  ZINC000980108339    0.4000
     42 H42        -4.3185    1.8179   52.9485 H       1  ZINC000980108339    0.1000
     43 H43        -3.7863    0.9049   51.5163 H       1  ZINC000980108339    0.1000
     44 H44        -3.5850    2.2471   49.2258 H       1  ZINC000980108339    0.0900
     45 H45        -3.3311    4.0700   49.3459 H       1  ZINC000980108339    0.1000
     46 H46        -0.9651    4.6553   50.2216 H       1  ZINC000980108339    0.1000
     47 H47        -1.0457    5.7915   52.4885 H       1  ZINC000980108339    0.0900
     48 H48        -1.9525    4.3428   53.1821 H       1  ZINC000980108339    0.0900
     49 H49        -0.0005    2.8361   52.5872 H       1  ZINC000980108339    0.0900
     50 H50         0.9061    4.2847   51.8935 H       1  ZINC000980108339    0.0900
     51 H51        -9.9138    2.2976   51.8124 H       1  ZINC000980108339    0.1000
     52 H52        -8.5463    2.7884   52.9033 H       1  ZINC000980108339    0.0800
     53 H53        -9.7586   -3.1368   55.5488 H       1  ZINC000980108339    0.4400
@<TRIPOS>BOND
     1     1     2    1
     2     1    31    1
     3     1    32    1
     4     1    33    1
     5     2    29   am
     6     2     3    1
     7     3     4    1
     8     3    34    1
     9     3    35    1
    10     4     5    1
    11     4     6    1
    12     4    28    1
    13     6     7    2
    14     6     8   am
    15     8     9    1
    16     8    36    1
    17     9    10    1
    18     9    37    1
    19     9    38    1
    20    10    11    1
    21    10    27    1
    22    10    12    1
    23    12    13    1
    24    12    39    1
    25    12    40    1
    26    13    14    1
    27    13    15    1
    28    13    27    1
    29    15    16   am
    30    15    41    1
    31    16    17    2
    32    16    18    1
    33    18    19    1
    34    18    42    1
    35    18    43    1
    36    19    20    1
    37    19    22    1
    38    19    21    1
    39    21    22    1
    40    21    44    1
    41    21    45    1
    42    22    23    1
    43    22    24    1
    44    24    26    1
    45    24    25    1
    46    24    46    1
    47    25    26    1
    48    25    47    1
    49    25    48    1
    50    26    49    1
    51    26    50    1
    52    27    51    1
    53    27    52    1
    54    28    29   am
    55    28    53    1
    56    29    30    2
@<TRIPOS>SUBSTRUCTURE
     1 ZINC000980108339        1 TEMP              0 ****  ****    0 ROOT


##########                                Name:    ZINC001039825450
##########                DOCK_Rotatable_Bonds:                   8
##########                         Heavy_Atoms:                  24
##########                    Molecular_Weight:             337.339
##########                DOCK_Rotatable_Bonds:                   8
##########                       Formal_Charge:           0.0100001
##########                     HBond_Acceptors:                  11
##########                        HBond_Donors:                   4
##########                         Heavy_Atoms:                  24
##########                          Grid_Score:          -32.521675
##########                     Grid_vdw_energy:          -30.883110
##########                      Grid_es_energy:           -1.638565
##########           Internal_energy_repulsive:            8.890672

@<TRIPOS>MOLECULE
ZINC001039825450
 43 45 1 0 0
SMALL
USER_CHARGES


@<TRIPOS>ATOM
      1 O1        -11.0975   -4.2218   58.0063 O.2     1  ZINC001039825450   -0.5100
      2 C2        -11.3634   -3.1069   57.6099 C.2     1  ZINC001039825450    0.5000
      3 C3        -12.1461   -2.9274   56.3346 C.3     1  ZINC001039825450    0.1300
      4 N4        -13.1666   -3.9739   56.2365 N.pl3   1  ZINC001039825450   -0.1500
      5 N5        -13.7577   -4.5145   57.2426 N.2     1  ZINC001039825450   -0.2800
      6 C6        -14.6100   -5.4107   56.7991 C.2     1  ZINC001039825450   -0.0200
      7 C7        -14.5015   -5.3859   55.4069 C.2     1  ZINC001039825450   -0.0200
      8 N8        -13.5974   -4.4731   55.1324 N.2     1  ZINC001039825450   -0.2800
      9 N9        -10.9638   -2.0285   58.3127 N.am    1  ZINC001039825450   -0.7300
     10 C10       -10.2030   -2.2031   59.5524 C.3     1  ZINC001039825450    0.1000
     11 C11        -9.6335   -0.8539   59.9955 C.3     1  ZINC001039825450    0.1100
     12 O12        -8.5516   -0.4612   59.1485 O.3     1  ZINC001039825450   -0.5400
     13 C13       -10.7428    0.2308   60.0141 C.3     1  ZINC001039825450   -0.1600
     14 C14       -10.1916    1.2212   61.0700 C.3     1  ZINC001039825450    0.1000
     15 N15        -9.5545    0.3690   62.0904 N.am    1  ZINC001039825450   -0.6100
     16 C16        -9.3495    0.7064   63.3790 C.2     1  ZINC001039825450    0.5200
     17 O17        -8.8122   -0.0771   64.1329 O.2     1  ZINC001039825450   -0.5100
     18 C18        -9.7880    2.0572   63.8831 C.3     1  ZINC001039825450    0.1100
     19 H19        -9.8897    2.7589   63.0553 H       1  ZINC001039825450    0.1200
     20 C20        -8.7909    2.5943   64.9282 C.3     1  ZINC001039825450    0.1100
     21 N21        -9.5986    2.7280   66.1498 N.am    1  ZINC001039825450   -0.7400
     22 C22       -10.8549    2.3422   65.8911 C.2     1  ZINC001039825450    0.7100
     23 O23       -11.7369    2.3515   66.7279 O.2     1  ZINC001039825450   -0.5800
     24 N24       -11.0535    1.9458   64.6238 N.am    1  ZINC001039825450   -0.7200
     25 C25        -9.1803   -0.9101   61.4696 C.3     1  ZINC001039825450    0.1200
     26 H26       -12.6277   -1.9495   56.3384 H       1  ZINC001039825450    0.1400
     27 H27       -11.4714   -2.9968   55.4813 H       1  ZINC001039825450    0.1400
     28 H28       -15.2608   -6.0381   57.3901 H       1  ZINC001039825450    0.2000
     29 H29       -15.0515   -5.9901   54.7005 H       1  ZINC001039825450    0.2000
     30 H30       -11.1800   -1.1369   57.9976 H       1  ZINC001039825450    0.4000
     31 H31       -10.8597   -2.5932   60.3299 H       1  ZINC001039825450    0.0900
     32 H32        -9.3857   -2.9038   59.3816 H       1  ZINC001039825450    0.0900
     33 H33        -8.7968   -0.3600   58.2186 H       1  ZINC001039825450    0.3800
     34 H34       -10.8365    0.7104   59.0398 H       1  ZINC001039825450    0.0900
     35 H35       -11.6959   -0.1907   60.3337 H       1  ZINC001039825450    0.0900
     36 H36        -9.4561    1.8867   60.6183 H       1  ZINC001039825450    0.0800
     37 H37       -11.0053    1.7971   61.5110 H       1  ZINC001039825450    0.0800
     38 H38        -7.9786    1.8840   65.0824 H       1  ZINC001039825450    0.0900
     39 H39        -8.3993    3.5639   64.6204 H       1  ZINC001039825450    0.1000
     40 H40        -9.2732    3.0452   67.0067 H       1  ZINC001039825450    0.4400
     41 H41       -11.8962    1.6345   64.2578 H       1  ZINC001039825450    0.4400
     42 H42        -9.6827   -1.7312   61.9808 H       1  ZINC001039825450    0.0900
     43 H43        -8.0998   -1.0448   61.5203 H       1  ZINC001039825450    0.0900
@<TRIPOS>BOND
     1     1     2    2
     2     2     3    1
     3     2     9   am
     4     3     4    1
     5     3    26    1
     6     3    27    1
     7     4     8    1
     8     4     5    1
     9     5     6    2
    10     6     7    1
    11     6    28    1
    12     7     8    2
    13     7    29    1
    14     9    10    1
    15     9    30    1
    16    10    11    1
    17    10    31    1
    18    10    32    1
    19    11    25    1
    20    11    12    1
    21    11    13    1
    22    12    33    1
    23    13    14    1
    24    13    34    1
    25    13    35    1
    26    14    15    1
    27    14    36    1
    28    14    37    1
    29    15    16   am
    30    15    25    1
    31    16    17    2
    32    16    18    1
    33    18    19    1
    34    18    24    1
    35    18    20    1
    36    20    21    1
    37    20    38    1
    38    20    39    1
    39    21    22   am
    40    21    40    1
    41    22    23    2
    42    22    24   am
    43    24    41    1
    44    25    42    1
    45    25    43    1
@<TRIPOS>SUBSTRUCTURE
     1 ZINC001039825450        1 TEMP              0 ****  ****    0 ROOT


##########                                Name:    ZINC000532153088
##########                DOCK_Rotatable_Bonds:                  11
##########                         Heavy_Atoms:                  29
##########                    Molecular_Weight:             402.484
##########                DOCK_Rotatable_Bonds:                  11
##########                       Formal_Charge:          -0.0200009
##########                     HBond_Acceptors:                   6
##########                        HBond_Donors:                   1
##########                         Heavy_Atoms:                  29
##########                          Grid_Score:          -32.497620
##########                     Grid_vdw_energy:          -31.834305
##########                      Grid_es_energy:           -0.663314
##########           Internal_energy_repulsive:           17.149942

@<TRIPOS>MOLECULE
ZINC000532153088
 57 59 1 0 0
SMALL
USER_CHARGES


@<TRIPOS>ATOM
      1 C1         -9.8603    1.4496   64.1472 C.3     1  ZINC000532153088   -0.1800
      2 C2         -9.2580    0.5819   63.0403 C.3     1  ZINC000532153088    0.0800
      3 C3         -8.2080   -0.3549   63.6410 C.3     1  ZINC000532153088   -0.1500
      4 O4        -10.2909   -0.1914   62.4261 O.3     1  ZINC000532153088   -0.3800
      5 C5        -11.1447    0.5613   61.5621 C.3     1  ZINC000532153088    0.1000
      6 C6        -10.3424    1.0946   60.4032 C.ar    1  ZINC000532153088   -0.0700
      7 C7        -10.0913    2.4499   60.3021 C.ar    1  ZINC000532153088   -0.1000
      8 C8         -9.3553    2.9391   59.2388 C.ar    1  ZINC000532153088   -0.1100
      9 C9         -8.8700    2.0728   58.2775 C.ar    1  ZINC000532153088   -0.1200
     10 C10        -9.1203    0.7168   58.3792 C.ar    1  ZINC000532153088   -0.1000
     11 C11        -9.8525    0.2273   59.4443 C.ar    1  ZINC000532153088   -0.1100
     12 C12       -10.1254   -1.2506   59.5552 C.3     1  ZINC000532153088    0.1600
     13 N13       -10.6803   -1.7411   58.2911 N.am    1  ZINC000532153088   -0.7300
     14 C14       -10.8683   -3.0626   58.1054 C.2     1  ZINC000532153088    0.5100
     15 O15       -10.5767   -3.8460   58.9841 O.2     1  ZINC000532153088   -0.5000
     16 C16       -11.4408   -3.5669   56.8057 C.3     1  ZINC000532153088    0.0300
     17 N17       -12.6917   -2.8547   56.5127 N.3     1  ZINC000532153088   -0.4800
     18 C18       -12.9906   -2.8855   55.0748 C.3     1  ZINC000532153088    0.1000
     19 C19       -12.1505   -1.8555   54.3648 C.ar    1  ZINC000532153088   -0.1300
     20 C20       -11.1124   -2.2565   53.5455 C.ar    1  ZINC000532153088   -0.0600
     21 C21       -10.3412   -1.3128   52.8932 C.ar    1  ZINC000532153088   -0.1700
     22 C22       -10.6081    0.0355   53.0602 C.ar    1  ZINC000532153088    0.1300
     23 F23        -9.8544    0.9576   52.4222 F       1  ZINC000532153088   -0.1300
     24 C24       -11.6478    0.4383   53.8807 C.ar    1  ZINC000532153088   -0.2000
     25 C25       -12.4226   -0.5075   54.5290 C.ar    1  ZINC000532153088    0.1600
     26 F26       -13.4375   -0.1158   55.3301 F       1  ZINC000532153088   -0.1100
     27 C27       -13.8068   -3.4059   57.2941 C.3     1  ZINC000532153088    0.0200
     28 C28       -14.2319   -2.6455   58.5518 C.3     1  ZINC000532153088   -0.2200
     29 C29       -15.1187   -2.6186   57.3054 C.3     1  ZINC000532153088   -0.1700
     30 H30        -9.0725    2.0395   64.6157 H       1  ZINC000532153088    0.0700
     31 H31       -10.6082    2.1170   63.7192 H       1  ZINC000532153088    0.0600
     32 H32       -10.3292    0.8104   64.8953 H       1  ZINC000532153088    0.0700
     33 H33        -8.7890    1.2211   62.2921 H       1  ZINC000532153088    0.0600
     34 H34        -8.6770   -0.9942   64.3891 H       1  ZINC000532153088    0.0600
     35 H35        -7.7790   -0.9731   62.8523 H       1  ZINC000532153088    0.0600
     36 H36        -7.4203    0.2349   64.1095 H       1  ZINC000532153088    0.0700
     37 H37       -11.9408   -0.0821   61.1874 H       1  ZINC000532153088    0.0600
     38 H38       -11.5801    1.3930   62.1159 H       1  ZINC000532153088    0.0600
     39 H39       -10.4705    3.1269   61.0533 H       1  ZINC000532153088    0.1300
     40 H40        -9.1597    3.9983   59.1594 H       1  ZINC000532153088    0.1200
     41 H41        -8.2955    2.4550   57.4466 H       1  ZINC000532153088    0.1300
     42 H42        -8.7414    0.0399   57.6278 H       1  ZINC000532153088    0.1300
     43 H43        -9.1955   -1.7765   59.7721 H       1  ZINC000532153088    0.0800
     44 H44       -10.8397   -1.4290   60.3589 H       1  ZINC000532153088    0.0800
     45 H45       -10.9124   -1.1145   57.5879 H       1  ZINC000532153088    0.4000
     46 H46       -10.7260   -3.3918   56.0016 H       1  ZINC000532153088    0.0700
     47 H47       -11.6414   -4.6351   56.8873 H       1  ZINC000532153088    0.1100
     48 H48       -12.7644   -3.8752   54.6777 H       1  ZINC000532153088    0.0900
     49 H49       -14.0463   -2.6639   54.9182 H       1  ZINC000532153088    0.0500
     50 H50       -10.9032   -3.3079   53.4150 H       1  ZINC000532153088    0.1400
     51 H51        -9.5299   -1.6272   52.2535 H       1  ZINC000532153088    0.1400
     52 H52       -11.8567    1.4899   54.0115 H       1  ZINC000532153088    0.1500
     53 H53       -13.8725   -4.4936   57.3169 H       1  ZINC000532153088    0.1200
     54 H54       -14.5772   -3.2330   59.4026 H       1  ZINC000532153088    0.1000
     55 H55       -13.6841   -1.7362   58.7995 H       1  ZINC000532153088    0.1000
     56 H56       -15.1543   -1.6916   56.7330 H       1  ZINC000532153088    0.1000
     57 H57       -16.0474   -3.1885   57.3361 H       1  ZINC000532153088    0.1000
@<TRIPOS>BOND
     1     1     2    1
     2     1    30    1
     3     1    31    1
     4     1    32    1
     5     2     3    1
     6     2     4    1
     7     2    33    1
     8     3    34    1
     9     3    35    1
    10     3    36    1
    11     4     5    1
    12     5     6    1
    13     5    37    1
    14     5    38    1
    15     6    11   ar
    16     6     7   ar
    17     7     8   ar
    18     7    39    1
    19     8     9   ar
    20     8    40    1
    21     9    10   ar
    22     9    41    1
    23    10    11   ar
    24    10    42    1
    25    11    12    1
    26    12    13    1
    27    12    43    1
    28    12    44    1
    29    13    14   am
    30    13    45    1
    31    14    15    2
    32    14    16    1
    33    16    17    1
    34    16    46    1
    35    16    47    1
    36    17    18    1
    37    17    27    1
    38    18    19    1
    39    18    48    1
    40    18    49    1
    41    19    25   ar
    42    19    20   ar
    43    20    21   ar
    44    20    50    1
    45    21    22   ar
    46    21    51    1
    47    22    23    1
    48    22    24   ar
    49    24    25   ar
    50    24    52    1
    51    25    26    1
    52    27    29    1
    53    27    28    1
    54    27    53    1
    55    28    29    1
    56    28    54    1
    57    28    55    1
    58    29    56    1
    59    29    57    1
@<TRIPOS>SUBSTRUCTURE
     1 ZINC000532153088        1 TEMP              0 ****  ****    0 ROOT


##########                                Name:    ZINC000650955167
##########                DOCK_Rotatable_Bonds:                   9
##########                         Heavy_Atoms:                  26
##########                    Molecular_Weight:             361.484
##########                DOCK_Rotatable_Bonds:                   9
##########                       Formal_Charge:        -7.07805e-07
##########                     HBond_Acceptors:                   6
##########                        HBond_Donors:                   2
##########                         Heavy_Atoms:                  26
##########                          Grid_Score:          -32.463882
##########                     Grid_vdw_energy:          -31.430824
##########                      Grid_es_energy:           -1.033059
##########           Internal_energy_repulsive:           29.368332

@<TRIPOS>MOLECULE
ZINC000650955167
 57 59 1 0 0
SMALL
USER_CHARGES


@<TRIPOS>ATOM
      1 C1        -12.9975   -1.8352   57.7724 C.3     1  ZINC000650955167    0.0200
      2 O2        -11.9115   -1.7033   56.8529 O.3     1  ZINC000650955167   -0.3200
      3 C3        -10.9629   -0.7757   57.1475 C.ar    1  ZINC000650955167    0.1300
      4 C4        -10.1008   -0.9785   58.2150 C.ar    1  ZINC000650955167   -0.2000
      5 C5         -9.1369   -0.0341   58.5121 C.ar    1  ZINC000650955167   -0.0800
      6 C6         -9.0317    1.1122   57.7467 C.ar    1  ZINC000650955167   -0.1500
      7 C7         -9.8903    1.3170   56.6822 C.ar    1  ZINC000650955167   -0.0800
      8 C8        -10.8515    0.3731   56.3773 C.ar    1  ZINC000650955167   -0.1100
      9 C9        -11.7865    0.5965   55.2167 C.3     1  ZINC000650955167   -0.0800
     10 C10       -11.2904   -0.1919   54.0030 C.3     1  ZINC000650955167    0.1800
     11 H11       -10.9755   -1.1862   54.3195 H       1  ZINC000650955167    0.0900
     12 N12       -10.1565    0.5092   53.3956 N.am    1  ZINC000650955167   -0.7300
     13 C13        -9.3300   -0.1463   52.5567 C.2     1  ZINC000650955167    0.7400
     14 O14        -9.5264   -1.3190   52.3028 O.2     1  ZINC000650955167   -0.5800
     15 N15        -8.2859    0.4983   51.9992 N.am    1  ZINC000650955167   -0.6700
     16 C16        -7.7286    1.8582   52.0549 C.3     1  ZINC000650955167    0.1100
     17 C17        -7.1645    1.6263   50.6463 C.3     1  ZINC000650955167    0.0300
     18 N18        -5.8112    2.1609   50.4440 N.3     1  ZINC000650955167   -0.5100
     19 C19        -4.8588    1.5709   51.4087 C.3     1  ZINC000650955167    0.0400
     20 C20        -3.8440    2.7030   51.7056 C.3     1  ZINC000650955167   -0.1600
     21 C21        -4.7609    3.9544   51.7024 C.3     1  ZINC000650955167    0.0800
     22 H22        -5.2519    4.0748   52.6681 H       1  ZINC000650955167    0.0600
     23 O23        -4.0151    5.1264   51.3671 O.3     1  ZINC000650955167   -0.5600
     24 C24        -5.7928    3.6266   50.6028 C.3     1  ZINC000650955167    0.0500
     25 C25        -7.1984    0.1494   51.0724 C.3     1  ZINC000650955167    0.1400
     26 C26       -12.4206   -0.3166   52.9792 C.3     1  ZINC000650955167   -0.1100
     27 C27       -13.3699   -1.4396   53.4019 C.3     1  ZINC000650955167   -0.1400
     28 C28       -13.1916    1.0030   52.9074 C.3     1  ZINC000650955167   -0.1500
     29 H29       -13.6807   -2.6076   57.4193 H       1  ZINC000650955167    0.1000
     30 H30       -12.6114   -2.1124   58.7533 H       1  ZINC000650955167    0.0600
     31 H31       -13.5286   -0.8862   57.8459 H       1  ZINC000650955167    0.0600
     32 H32       -10.1830   -1.8735   58.8137 H       1  ZINC000650955167    0.1300
     33 H33        -8.4654   -0.1915   59.3432 H       1  ZINC000650955167    0.1200
     34 H34        -8.2778    1.8494   57.9807 H       1  ZINC000650955167    0.1200
     35 H35        -9.8062    2.2135   56.0859 H       1  ZINC000650955167    0.1300
     36 H36       -12.7870    0.2577   55.4858 H       1  ZINC000650955167    0.0900
     37 H37       -11.8158    1.6585   54.9730 H       1  ZINC000650955167    0.0800
     38 H38       -10.0006    1.4451   53.5972 H       1  ZINC000650955167    0.4000
     39 H39        -8.4894    2.6377   52.0949 H       1  ZINC000650955167    0.0700
     40 H40        -6.9583    1.9807   52.8163 H       1  ZINC000650955167    0.0900
     41 H41        -7.8534    1.8818   49.8412 H       1  ZINC000650955167    0.0900
     42 H42        -5.3767    1.2765   52.3216 H       1  ZINC000650955167    0.0500
     43 H43        -4.3520    0.7135   50.9656 H       1  ZINC000650955167    0.0900
     44 H44        -3.3773    2.5633   52.6807 H       1  ZINC000650955167    0.0800
     45 H45        -3.0913    2.7684   50.9199 H       1  ZINC000650955167    0.0900
     46 H46        -3.5971    5.0906   50.4958 H       1  ZINC000650955167    0.3800
     47 H47        -5.4978    4.0975   49.6651 H       1  ZINC000650955167    0.0900
     48 H48        -6.7795    3.9794   50.9031 H       1  ZINC000650955167    0.0700
     49 H49        -6.2870   -0.1795   51.5715 H       1  ZINC000650955167    0.0900
     50 H50        -7.5100   -0.5254   50.2751 H       1  ZINC000650955167    0.0800
     51 H51       -12.0002   -0.5455   52.0000 H       1  ZINC000650955167    0.0700
     52 H52       -13.7904   -1.2107   54.3812 H       1  ZINC000650955167    0.0600
     53 H53       -14.1751   -1.5284   52.6726 H       1  ZINC000650955167    0.0400
     54 H54       -12.8207   -2.3796   53.4531 H       1  ZINC000650955167    0.0500
     55 H55       -12.5153    1.8030   52.6064 H       1  ZINC000650955167    0.0600
     56 H56       -13.9967    0.9142   52.1782 H       1  ZINC000650955167    0.0600
     57 H57       -13.6119    1.2319   53.8868 H       1  ZINC000650955167    0.0600
@<TRIPOS>BOND
     1     1     2    1
     2     1    29    1
     3     1    30    1
     4     1    31    1
     5     2     3    1
     6     3     8   ar
     7     3     4   ar
     8     4     5   ar
     9     4    32    1
    10     5     6   ar
    11     5    33    1
    12     6     7   ar
    13     6    34    1
    14     7     8   ar
    15     7    35    1
    16     8     9    1
    17     9    10    1
    18     9    36    1
    19     9    37    1
    20    10    11    1
    21    10    12    1
    22    10    26    1
    23    12    13   am
    24    12    38    1
    25    13    14    2
    26    13    15   am
    27    15    25    1
    28    15    16    1
    29    16    17    1
    30    16    39    1
    31    16    40    1
    32    17    18    1
    33    17    25    1
    34    17    41    1
    35    18    24    1
    36    18    19    1
    37    19    20    1
    38    19    42    1
    39    19    43    1
    40    20    21    1
    41    20    44    1
    42    20    45    1
    43    21    22    1
    44    21    23    1
    45    21    24    1
    46    23    46    1
    47    24    47    1
    48    24    48    1
    49    25    49    1
    50    25    50    1
    51    26    27    1
    52    26    28    1
    53    26    51    1
    54    27    52    1
    55    27    53    1
    56    27    54    1
    57    28    55    1
    58    28    56    1
    59    28    57    1
@<TRIPOS>SUBSTRUCTURE
     1 ZINC000650955167        1 TEMP              0 ****  ****    0 ROOT


##########                                Name:    ZINC000409064708
##########                DOCK_Rotatable_Bonds:                   8
##########                         Heavy_Atoms:                  29
##########                    Molecular_Weight:             415.442
##########                DOCK_Rotatable_Bonds:                   8
##########                       Formal_Charge:                0.03
##########                     HBond_Acceptors:                   8
##########                        HBond_Donors:                   0
##########                         Heavy_Atoms:                  29
##########                          Grid_Score:          -32.457581
##########                     Grid_vdw_energy:          -32.321152
##########                      Grid_es_energy:           -0.136429
##########           Internal_energy_repulsive:           18.972052

@<TRIPOS>MOLECULE
ZINC000409064708
 47 49 1 0 0
SMALL
USER_CHARGES


@<TRIPOS>ATOM
      1 C1         -9.3545   -2.6406   59.0442 C.3     1  ZINC000409064708    0.0400
      2 O2        -10.5515   -3.3184   58.5792 O.3     1  ZINC000409064708   -0.3500
      3 C3        -11.7165   -2.6688   58.7285 C.2     1  ZINC000409064708    0.4600
      4 O4        -12.1112   -2.3824   59.8340 O.2     1  ZINC000409064708   -0.4900
      5 C5        -12.5323   -2.2967   57.5173 C.3     1  ZINC000409064708    0.1400
      6 H6        -12.8220   -3.2013   56.9824 H       1  ZINC000409064708    0.1500
      7 C7        -13.7873   -1.5418   57.9598 C.3     1  ZINC000409064708   -0.1600
      8 N8        -11.7341   -1.4421   56.6347 N.am    1  ZINC000409064708   -0.5600
      9 C9        -11.1469   -0.3398   57.1146 C.2     1  ZINC000409064708    0.5400
     10 O10       -11.1950    0.0665   58.2600 O.2     1  ZINC000409064708   -0.4200
     11 S11       -10.2849    0.4146   55.7623 S.3     1  ZINC000409064708   -0.0100
     12 C12       -10.7663   -0.8199   54.5814 C.2     1  ZINC000409064708   -0.2400
     13 C13       -10.4472   -0.8844   53.2639 C.2     1  ZINC000409064708    0.0900
     14 C14        -9.6036    0.1555   52.6611 C.ar    1  ZINC000409064708   -0.1400
     15 C15        -8.2424   -0.0859   52.4377 C.ar    1  ZINC000409064708    0.0000
     16 C16        -7.4562    0.8926   51.8723 C.ar    1  ZINC000409064708   -0.1600
     17 C17        -8.0112    2.1186   51.5237 C.ar    1  ZINC000409064708    0.1600
     18 O18        -7.2313    3.0800   50.9664 O.3     1  ZINC000409064708   -0.3000
     19 C19        -6.2917    2.6593   49.9752 C.3     1  ZINC000409064708    0.1000
     20 C20        -4.8960    2.7473   50.5365 C.ar    1  ZINC000409064708   -0.0700
     21 C21        -3.8093    2.7858   49.6832 C.ar    1  ZINC000409064708   -0.1000
     22 C22        -2.5281    2.8665   50.1968 C.ar    1  ZINC000409064708   -0.0900
     23 C23        -2.3327    2.9090   51.5641 C.ar    1  ZINC000409064708   -0.1400
     24 C24        -3.4207    2.8712   52.4200 C.ar    1  ZINC000409064708    0.1000
     25 F25        -3.2309    2.9126   53.7570 F       1  ZINC000409064708   -0.1400
     26 C26        -4.7033    2.7955   51.9044 C.ar    1  ZINC000409064708   -0.1300
     27 C27        -9.3618    2.3637   51.7432 C.ar    1  ZINC000409064708   -0.2200
     28 C28       -10.1586    1.3901   52.3022 C.ar    1  ZINC000409064708   -0.0400
     29 C29       -11.5843   -1.7576   55.3591 C.2     1  ZINC000409064708    0.5600
     30 O30       -12.0923   -2.7474   54.8657 O.2     1  ZINC000409064708   -0.4600
     31 H31        -9.2368   -1.7005   58.5052 H       1  ZINC000409064708    0.0700
     32 H32        -9.4427   -2.4388   60.1117 H       1  ZINC000409064708    0.0700
     33 H33        -8.4855   -3.2735   58.8646 H       1  ZINC000409064708    0.1100
     34 H34       -14.3812   -2.1776   58.6164 H       1  ZINC000409064708    0.1000
     35 H35       -13.4976   -0.6373   58.4947 H       1  ZINC000409064708    0.0800
     36 H36       -14.3773   -1.2726   57.0838 H       1  ZINC000409064708    0.0800
     37 H37       -10.8136   -1.7005   52.6587 H       1  ZINC000409064708    0.1600
     38 H38        -7.8101   -1.0377   52.7088 H       1  ZINC000409064708    0.1300
     39 H39        -6.4064    0.7075   51.6994 H       1  ZINC000409064708    0.1400
     40 H40        -6.5035    1.6295   49.6878 H       1  ZINC000409064708    0.0800
     41 H41        -6.3729    3.3047   49.1005 H       1  ZINC000409064708    0.0800
     42 H42        -3.9610    2.7522   48.6145 H       1  ZINC000409064708    0.1300
     43 H43        -1.6797    2.8961   49.5293 H       1  ZINC000409064708    0.1400
     44 H44        -1.3318    2.9714   51.9652 H       1  ZINC000409064708    0.1400
     45 H45        -5.5526    2.7663   52.5709 H       1  ZINC000409064708    0.1400
     46 H46        -9.7876    3.3180   51.4708 H       1  ZINC000409064708    0.1300
     47 H47       -11.2078    1.5815   52.4723 H       1  ZINC000409064708    0.1300
@<TRIPOS>BOND
     1     1     2    1
     2     1    31    1
     3     1    32    1
     4     1    33    1
     5     2     3    1
     6     3     4    2
     7     3     5    1
     8     5     6    1
     9     5     7    1
    10     5     8    1
    11     7    34    1
    12     7    35    1
    13     7    36    1
    14     8    29   am
    15     8     9   am
    16     9    10    2
    17     9    11    1
    18    11    12    1
    19    12    13    2
    20    12    29    1
    21    13    14    1
    22    13    37    1
    23    14    28   ar
    24    14    15   ar
    25    15    16   ar
    26    15    38    1
    27    16    17   ar
    28    16    39    1
    29    17    18    1
    30    17    27   ar
    31    18    19    1
    32    19    20    1
    33    19    40    1
    34    19    41    1
    35    20    26   ar
    36    20    21   ar
    37    21    22   ar
    38    21    42    1
    39    22    23   ar
    40    22    43    1
    41    23    24   ar
    42    23    44    1
    43    24    25    1
    44    24    26   ar
    45    26    45    1
    46    27    28   ar
    47    27    46    1
    48    28    47    1
    49    29    30    2
@<TRIPOS>SUBSTRUCTURE
     1 ZINC000409064708        1 TEMP              0 ****  ****    0 ROOT


##########                                Name:    ZINC000851838607
##########                DOCK_Rotatable_Bonds:                  12
##########                         Heavy_Atoms:                  23
##########                    Molecular_Weight:             352.495
##########                DOCK_Rotatable_Bonds:                  12
##########                       Formal_Charge:          0.00999896
##########                     HBond_Acceptors:                   8
##########                        HBond_Donors:                   2
##########                         Heavy_Atoms:                  23
##########                          Grid_Score:          -32.429821
##########                     Grid_vdw_energy:          -31.710463
##########                      Grid_es_energy:           -0.719359
##########           Internal_energy_repulsive:           24.099039

@<TRIPOS>MOLECULE
ZINC000851838607
 55 54 1 0 0
SMALL
USER_CHARGES


@<TRIPOS>ATOM
      1 C1         -7.9301    0.0346   52.2658 C.3     1  ZINC000851838607    0.0300
      2 O2         -9.3448    0.2283   52.2085 O.3     1  ZINC000851838607   -0.3800
      3 C3        -10.0027    0.0842   53.4688 C.3     1  ZINC000851838607    0.0800
      4 C4        -11.5122    0.2454   53.2775 C.3     1  ZINC000851838607   -0.6000
      5 H5        -12.0016    0.2658   54.2513 H       1  ZINC000851838607    0.1400
      6 C6        -11.7955    1.5540   52.5369 C.3     1  ZINC000851838607   -0.1400
      7 S7        -12.1512   -1.1485   52.3085 S.o2    1  ZINC000851838607    2.6200
      8 O8        -13.2156   -0.7250   51.4678 O.2     1  ZINC000851838607   -0.9400
      9 O9        -11.0818   -1.9325   51.7977 O.2     1  ZINC000851838607   -0.9500
     10 N10       -12.8792   -2.1297   53.4265 N.am    1  ZINC000851838607   -1.1200
     11 C11       -12.0946   -2.6933   54.5277 C.3     1  ZINC000851838607    0.1100
     12 C12       -12.3995   -1.9264   55.8160 C.3     1  ZINC000851838607   -0.1400
     13 C13       -12.7659   -2.9158   56.9240 C.3     1  ZINC000851838607    0.1700
     14 H14       -12.1502   -3.8104   56.8305 H       1  ZINC000851838607    0.1000
     15 N15       -12.5307   -2.2954   58.2301 N.am    1  ZINC000851838607   -0.7100
     16 C16       -11.4431   -2.6335   58.9507 C.2     1  ZINC000851838607    0.6500
     17 O17       -10.6569   -3.4520   58.5165 O.2     1  ZINC000851838607   -0.5600
     18 O18       -11.2277   -2.0645   60.1518 O.3     1  ZINC000851838607   -0.3700
     19 C19       -10.4547   -0.8355   60.1699 C.3     1  ZINC000851838607    0.1400
     20 C20        -9.9369   -0.5795   61.5866 C.3     1  ZINC000851838607   -0.1800
     21 C21        -9.2706   -0.9635   59.2094 C.3     1  ZINC000851838607   -0.1400
     22 C22       -11.3421    0.3317   59.7326 C.3     1  ZINC000851838607   -0.1800
     23 C23       -14.2422   -3.2975   56.7992 C.3     1  ZINC000851838607   -0.1100
     24 C24       -14.3632   -4.8103   56.6052 C.3     1  ZINC000851838607   -0.1500
     25 C25       -14.9848   -2.8855   58.0720 C.3     1  ZINC000851838607   -0.1400
     26 H26        -7.4904    0.7662   52.9437 H       1  ZINC000851838607    0.0400
     27 H27        -7.7154   -0.9709   52.6276 H       1  ZINC000851838607    0.0500
     28 H28        -7.5055    0.1609   51.2699 H       1  ZINC000851838607    0.0900
     29 H29        -9.7918   -0.9039   53.8778 H       1  ZINC000851838607    0.0700
     30 H30        -9.6401    0.8474   54.1574 H       1  ZINC000851838607    0.0600
     31 H31       -12.8614    1.6254   52.3203 H       1  ZINC000851838607    0.0700
     32 H32       -11.4939    2.3964   53.1593 H       1  ZINC000851838607    0.0900
     33 H33       -11.2330    1.5721   51.6034 H       1  ZINC000851838607    0.0700
     34 H34       -13.8251   -2.3310   53.3522 H       1  ZINC000851838607    0.4200
     35 H35       -12.3555   -3.7434   54.6595 H       1  ZINC000851838607    0.0700
     36 H36       -11.0325   -2.6091   54.2975 H       1  ZINC000851838607    0.0800
     37 H37       -11.5209   -1.3549   56.1151 H       1  ZINC000851838607    0.0800
     38 H38       -13.2343   -1.2467   55.6453 H       1  ZINC000851838607    0.1000
     39 H39       -13.1575   -1.6411   58.5762 H       1  ZINC000851838607    0.4100
     40 H40        -9.3046   -1.4109   61.8982 H       1  ZINC000851838607    0.0600
     41 H41        -9.3566    0.3431   61.6001 H       1  ZINC000851838607    0.0700
     42 H42       -10.7804   -0.4882   62.2708 H       1  ZINC000851838607    0.0900
     43 H43        -9.6395   -1.1459   58.2000 H       1  ZINC000851838607    0.0700
     44 H44        -8.6903   -0.0410   59.2230 H       1  ZINC000851838607    0.0800
     45 H45        -8.6384   -1.7950   59.5210 H       1  ZINC000851838607    0.0700
     46 H46       -12.1857    0.4230   60.4168 H       1  ZINC000851838607    0.0900
     47 H47       -10.7618    1.2543   59.7461 H       1  ZINC000851838607    0.0700
     48 H48       -11.7111    0.1493   58.7232 H       1  ZINC000851838607    0.0600
     49 H49       -14.6787   -2.7852   55.9419 H       1  ZINC000851838607    0.0700
     50 H50       -13.9267   -5.3227   57.4625 H       1  ZINC000851838607    0.0600
     51 H51       -15.4150   -5.0822   56.5164 H       1  ZINC000851838607    0.0600
     52 H52       -13.8342   -5.1038   55.6985 H       1  ZINC000851838607    0.0600
     53 H53       -14.8986   -1.8078   58.2102 H       1  ZINC000851838607    0.0500
     54 H54       -16.0365   -3.1575   57.9831 H       1  ZINC000851838607    0.0500
     55 H55       -14.5483   -3.3979   58.9293 H       1  ZINC000851838607    0.0700
@<TRIPOS>BOND
     1     1     2    1
     2     1    26    1
     3     1    27    1
     4     1    28    1
     5     2     3    1
     6     3     4    1
     7     3    29    1
     8     3    30    1
     9     4     5    1
    10     4     6    1
    11     4     7    1
    12     6    31    1
    13     6    32    1
    14     6    33    1
    15     7     8    2
    16     7     9    2
    17     7    10   am
    18    10    11    1
    19    10    34    1
    20    11    12    1
    21    11    35    1
    22    11    36    1
    23    12    13    1
    24    12    37    1
    25    12    38    1
    26    13    14    1
    27    13    15    1
    28    13    23    1
    29    15    16   am
    30    15    39    1
    31    16    17    2
    32    16    18    1
    33    18    19    1
    34    19    20    1
    35    19    21    1
    36    19    22    1
    37    20    40    1
    38    20    41    1
    39    20    42    1
    40    21    43    1
    41    21    44    1
    42    21    45    1
    43    22    46    1
    44    22    47    1
    45    22    48    1
    46    23    24    1
    47    23    25    1
    48    23    49    1
    49    24    50    1
    50    24    51    1
    51    24    52    1
    52    25    53    1
    53    25    54    1
    54    25    55    1
@<TRIPOS>SUBSTRUCTURE
     1 ZINC000851838607        1 TEMP              0 ****  ****    0 ROOT


##########                                Name:    ZINC001169875900
##########                DOCK_Rotatable_Bonds:                   9
##########                         Heavy_Atoms:                  24
##########                    Molecular_Weight:             329.399
##########                DOCK_Rotatable_Bonds:                   9
##########                       Formal_Charge:          -0.0500002
##########                     HBond_Acceptors:                   6
##########                        HBond_Donors:                   1
##########                         Heavy_Atoms:                  24
##########                          Grid_Score:          -32.422649
##########                     Grid_vdw_energy:          -32.487064
##########                      Grid_es_energy:            0.064415
##########           Internal_energy_repulsive:            5.137482

@<TRIPOS>MOLECULE
ZINC001169875900
 47 48 1 0 0
SMALL
USER_CHARGES


@<TRIPOS>ATOM
      1 C1         -3.9911    3.0398   50.1032 C.3     1  ZINC001169875900   -0.1500
      2 C2         -4.1769    2.1665   51.3456 C.3     1  ZINC001169875900   -0.1300
      3 C3         -5.5569    1.5071   51.3037 C.3     1  ZINC001169875900    0.0700
      4 O4         -6.5070    2.3488   51.9600 O.3     1  ZINC001169875900   -0.3100
      5 C5         -7.5931    1.7437   52.5058 C.ar    1  ZINC001169875900    0.2700
      6 N6         -8.2334    0.8108   51.8222 N.ar    1  ZINC001169875900   -0.5000
      7 C7         -9.2970    0.2002   52.3096 C.ar    1  ZINC001169875900    0.0600
      8 C8         -9.7795    0.5159   53.5707 C.ar    1  ZINC001169875900    0.1400
      9 N9        -10.9085   -0.1354   54.0814 N.pl3   1  ZINC001169875900   -0.7400
     10 C10       -11.2298   -1.4959   53.6434 C.3     1  ZINC001169875900    0.1800
     11 C11       -11.8297   -2.2650   54.7923 C.ar    1  ZINC001169875900    0.1000
     12 C12       -13.1972   -2.4870   54.8260 C.ar    1  ZINC001169875900   -0.1200
     13 C13       -13.7448   -3.1949   55.8847 C.ar    1  ZINC001169875900   -0.0800
     14 C14       -12.8975   -3.6583   56.8786 C.ar    1  ZINC001169875900   -0.1000
     15 C15       -11.5322   -3.3980   56.7798 C.ar    1  ZINC001169875900    0.0900
     16 C16       -10.6135   -3.8863   57.8335 C.2     1  ZINC001169875900    0.5200
     17 O17       -10.3980   -5.0758   57.9477 O.2     1  ZINC001169875900   -0.5000
     18 O18       -10.0169   -3.0110   58.6652 O.3     1  ZINC001169875900   -0.3300
     19 C19       -10.7823   -2.5697   59.8173 C.3     1  ZINC001169875900    0.0600
     20 C20       -10.9897   -1.0556   59.7423 C.3     1  ZINC001169875900   -0.1500
     21 N21       -11.0476   -2.7206   55.7462 N.ar    1  ZINC001169875900   -0.4200
     22 C22        -9.1263    1.4906   54.3230 C.ar    1  ZINC001169875900   -0.1200
     23 C23        -8.0149    2.1083   53.7779 C.ar    1  ZINC001169875900   -0.1000
     24 C24        -7.2746    3.1682   54.5523 C.3     1  ZINC001169875900   -0.1000
     25 H25        -4.7615    3.8106   50.0823 H       1  ZINC001169875900    0.0600
     26 H26        -3.0079    3.5096   50.1330 H       1  ZINC001169875900    0.0600
     27 H27        -4.0713    2.4216   49.2091 H       1  ZINC001169875900    0.0600
     28 H28        -4.0966    2.7848   52.2397 H       1  ZINC001169875900    0.0700
     29 H29        -3.4064    1.3957   51.3664 H       1  ZINC001169875900    0.0700
     30 H30        -5.5145    0.5430   51.8106 H       1  ZINC001169875900    0.0600
     31 H31        -5.8577    1.3594   50.2665 H       1  ZINC001169875900    0.0600
     32 H32        -9.7972   -0.5535   51.7196 H       1  ZINC001169875900    0.1500
     33 H33       -11.4779    0.3141   54.7252 H       1  ZINC001169875900    0.4000
     34 H34       -11.9448   -1.4538   52.8217 H       1  ZINC001169875900    0.0800
     35 H35       -10.3201   -1.9942   53.3082 H       1  ZINC001169875900    0.0800
     36 H36       -13.8301   -2.1119   54.0354 H       1  ZINC001169875900    0.1500
     37 H37       -14.8075   -3.3812   55.9335 H       1  ZINC001169875900    0.1500
     38 H38       -13.2900   -4.2131   57.7181 H       1  ZINC001169875900    0.1500
     39 H39       -11.7511   -3.0692   59.8229 H       1  ZINC001169875900    0.0700
     40 H40       -10.2406   -2.8175   60.7300 H       1  ZINC001169875900    0.0700
     41 H41       -10.0209   -0.5561   59.7368 H       1  ZINC001169875900    0.0700
     42 H42       -11.5315   -0.8079   58.8296 H       1  ZINC001169875900    0.0700
     43 H43       -11.5644   -0.7244   60.6073 H       1  ZINC001169875900    0.0800
     44 H44        -9.4794    1.7576   55.3081 H       1  ZINC001169875900    0.1400
     45 H45        -6.4925    2.7011   55.1508 H       1  ZINC001169875900    0.0700
     46 H46        -7.9704    3.6915   55.2081 H       1  ZINC001169875900    0.0700
     47 H47        -6.8255    3.8784   53.8580 H       1  ZINC001169875900    0.0700
@<TRIPOS>BOND
     1     1     2    1
     2     1    25    1
     3     1    26    1
     4     1    27    1
     5     2     3    1
     6     2    28    1
     7     2    29    1
     8     3     4    1
     9     3    30    1
    10     3    31    1
    11     4     5    1
    12     5    23   ar
    13     5     6   ar
    14     6     7   ar
    15     7     8   ar
    16     7    32    1
    17     8     9    1
    18     8    22   ar
    19     9    10    1
    20     9    33    1
    21    10    11    1
    22    10    34    1
    23    10    35    1
    24    11    21   ar
    25    11    12   ar
    26    12    13   ar
    27    12    36    1
    28    13    14   ar
    29    13    37    1
    30    14    15   ar
    31    14    38    1
    32    15    16    1
    33    15    21   ar
    34    16    17    2
    35    16    18    1
    36    18    19    1
    37    19    20    1
    38    19    39    1
    39    19    40    1
    40    20    41    1
    41    20    42    1
    42    20    43    1
    43    22    23   ar
    44    22    44    1
    45    23    24    1
    46    24    45    1
    47    24    46    1
    48    24    47    1
@<TRIPOS>SUBSTRUCTURE
     1 ZINC001169875900        1 TEMP              0 ****  ****    0 ROOT


##########                                Name:    ZINC000992031068
##########                DOCK_Rotatable_Bonds:                   8
##########                         Heavy_Atoms:                  25
##########                    Molecular_Weight:             342.401
##########                DOCK_Rotatable_Bonds:                   8
##########                       Formal_Charge:           0.0199999
##########                     HBond_Acceptors:                   8
##########                        HBond_Donors:                   2
##########                         Heavy_Atoms:                  25
##########                          Grid_Score:          -32.416336
##########                     Grid_vdw_energy:          -30.142414
##########                      Grid_es_energy:           -2.273921
##########           Internal_energy_repulsive:            7.041868

@<TRIPOS>MOLECULE
ZINC000992031068
 47 49 1 0 0
SMALL
USER_CHARGES


@<TRIPOS>ATOM
      1 C1         -6.4335    1.3481   51.1447 C.3     1  ZINC000992031068   -0.1100
      2 C2         -5.0669    1.9832   51.1408 C.ar    1  ZINC000992031068    0.1800
      3 C3         -4.5413    2.5267   52.3043 C.ar    1  ZINC000992031068   -0.1700
      4 C4         -3.2718    3.1031   52.2496 C.ar    1  ZINC000992031068    0.1300
      5 C5         -2.6605    3.6989   53.4642 C.2     1  ZINC000992031068    0.5700
      6 O6         -1.6696    4.3948   53.3665 O.2     1  ZINC000992031068   -0.5200
      7 N7         -3.2049    3.4678   54.6752 N.am    1  ZINC000992031068   -0.7100
      8 C8         -2.6027    4.0572   55.8736 C.3     1  ZINC000992031068    0.1300
      9 C9         -2.8163    3.1212   57.0648 C.3     1  ZINC000992031068   -0.1200
     10 C10        -1.7187    2.0545   57.2147 C.3     1  ZINC000992031068   -0.1400
     11 C11        -1.8030    2.2938   58.7314 C.3     1  ZINC000992031068    0.1200
     12 N12        -0.4990    2.2923   59.3991 N.am    1  ZINC000992031068   -0.7200
     13 C13        -0.3163    1.5655   60.5194 C.2     1  ZINC000992031068    0.5200
     14 O14        -1.2310    0.9116   60.9738 O.2     1  ZINC000992031068   -0.5200
     15 C15         1.0246    1.5654   61.2071 C.3     1  ZINC000992031068   -0.0800
     16 C16         1.3881    0.1563   61.5987 C.2     1  ZINC000992031068    0.1000
     17 C17         1.0939   -0.4462   62.7740 C.2     1  ZINC000992031068   -0.2500
     18 C18         1.6086   -1.7462   62.7320 C.2     1  ZINC000992031068    0.0500
     19 N19         2.1908   -1.9179   61.5730 N.2     1  ZINC000992031068   -0.2900
     20 N20         2.0603   -0.7327   60.8376 N.pl3   1  ZINC000992031068   -0.3700
     21 C21         2.5712   -0.4969   59.4850 C.3     1  ZINC000992031068    0.1000
     22 C22        -2.3242    3.7022   58.4009 C.3     1  ZINC000992031068   -0.1400
     23 N23        -2.6177    3.1094   51.0906 N.ar    1  ZINC000992031068   -0.5000
     24 C24        -3.1558    2.5819   50.0119 C.ar    1  ZINC000992031068    0.3000
     25 N25        -4.3512    2.0249   50.0301 N.ar    1  ZINC000992031068   -0.5100
     26 H26        -6.3411    0.2886   51.3834 H       1  ZINC000992031068    0.0900
     27 H27        -7.0588    1.8358   51.8925 H       1  ZINC000992031068    0.0900
     28 H28        -6.8892    1.4604   50.1608 H       1  ZINC000992031068    0.0900
     29 H29        -5.1004    2.5045   53.2281 H       1  ZINC000992031068    0.1600
     30 H30        -3.9955    2.9112   54.7534 H       1  ZINC000992031068    0.4100
     31 H31        -1.5344    4.2001   55.7107 H       1  ZINC000992031068    0.0700
     32 H32        -3.0708    5.0199   56.0795 H       1  ZINC000992031068    0.0800
     33 H33        -3.8279    2.7179   57.1102 H       1  ZINC000992031068    0.1000
     34 H34        -2.0355    1.0565   56.9118 H       1  ZINC000992031068    0.0800
     35 H35        -0.7634    2.3469   56.7789 H       1  ZINC000992031068    0.0900
     36 H36        -2.5360    1.6620   59.2330 H       1  ZINC000992031068    0.1200
     37 H37         0.2329    2.8143   59.0349 H       1  ZINC000992031068    0.4000
     38 H38         1.7809    1.9606   60.5290 H       1  ZINC000992031068    0.1200
     39 H39         0.9751    2.1892   62.0996 H       1  ZINC000992031068    0.1100
     40 H40         0.5570   -0.0018   63.5990 H       1  ZINC000992031068    0.1500
     41 H41         1.5380   -2.4809   63.5204 H       1  ZINC000992031068    0.1800
     42 H42         1.8127   -0.7808   58.7555 H       1  ZINC000992031068    0.0800
     43 H43         2.8117    0.5596   59.3666 H       1  ZINC000992031068    0.0800
     44 H44         3.4693   -1.0941   59.3267 H       1  ZINC000992031068    0.0900
     45 H45        -1.5344    4.4452   58.2895 H       1  ZINC000992031068    0.0900
     46 H46        -3.1298    4.0344   59.0557 H       1  ZINC000992031068    0.0800
     47 H47        -2.6007    2.6020   49.0858 H       1  ZINC000992031068    0.2100
@<TRIPOS>BOND
     1     1     2    1
     2     1    26    1
     3     1    27    1
     4     1    28    1
     5     2    25   ar
     6     2     3   ar
     7     3     4   ar
     8     3    29    1
     9     4     5    1
    10     4    23   ar
    11     5     6    2
    12     5     7   am
    13     7     8    1
    14     7    30    1
    15     8     9    1
    16     8    31    1
    17     8    32    1
    18     9    22    1
    19     9    10    1
    20     9    33    1
    21    10    11    1
    22    10    34    1
    23    10    35    1
    24    11    12    1
    25    11    22    1
    26    11    36    1
    27    12    13   am
    28    12    37    1
    29    13    14    2
    30    13    15    1
    31    15    16    1
    32    15    38    1
    33    15    39    1
    34    16    20    1
    35    16    17    2
    36    17    18    1
    37    17    40    1
    38    18    19    2
    39    18    41    1
    40    19    20    1
    41    20    21    1
    42    21    42    1
    43    21    43    1
    44    21    44    1
    45    22    45    1
    46    22    46    1
    47    23    24   ar
    48    24    25   ar
    49    24    47    1
@<TRIPOS>SUBSTRUCTURE
     1 ZINC000992031068        1 TEMP              0 ****  ****    0 ROOT


##########                                Name:    ZINC000740843182
##########                DOCK_Rotatable_Bonds:                  10
##########                         Heavy_Atoms:                  24
##########                    Molecular_Weight:              419.34
##########                DOCK_Rotatable_Bonds:                  10
##########                       Formal_Charge:          0.00999957
##########                     HBond_Acceptors:                   7
##########                        HBond_Donors:                   3
##########                         Heavy_Atoms:                  24
##########                          Grid_Score:          -32.367374
##########                     Grid_vdw_energy:          -29.583323
##########                      Grid_es_energy:           -2.784051
##########           Internal_energy_repulsive:           10.690303

@<TRIPOS>MOLECULE
ZINC000740843182
 47 48 1 0 0
SMALL
USER_CHARGES


@<TRIPOS>ATOM
      1 C1         -2.5370    1.9406   57.5944 C.3     1  ZINC000740843182   -0.1500
      2 C2         -1.3159    2.7399   57.1349 C.3     1  ZINC000740843182   -0.1000
      3 H3         -0.6129    2.0738   56.6346 H       1  ZINC000740843182    0.0900
      4 C4         -1.7598    3.8356   56.1637 C.3     1  ZINC000740843182    0.1200
      5 N5         -2.2920    3.2217   54.9448 N.am    1  ZINC000740843182   -0.7200
      6 C6         -2.8742    3.9893   54.0023 C.2     1  ZINC000740843182    0.5500
      7 O7         -2.9590    5.1911   54.1644 O.2     1  ZINC000740843182   -0.5000
      8 C8         -3.4095    3.3700   52.7718 C.ar    1  ZINC000740843182   -0.1300
      9 C9         -4.7169    2.8822   52.7441 C.ar    1  ZINC000740843182    0.0200
     10 C10        -5.2106    2.3058   51.5922 C.ar    1  ZINC000740843182   -0.6800
     11 S11        -6.8609    1.6894   51.5556 S.o2    1  ZINC000740843182    2.7000
     12 O12        -6.7634    0.2965   51.2922 O.2     1  ZINC000740843182   -0.9400
     13 O13        -7.5129    2.2199   52.7014 O.2     1  ZINC000740843182   -0.9500
     14 N14        -7.6068    2.3631   50.2394 N.am    1  ZINC000740843182   -1.0900
     15 C15        -7.7327    3.8188   50.1342 C.3     1  ZINC000740843182    0.0800
     16 C16        -8.9022    4.3694   49.3157 C.3     1  ZINC000740843182   -0.1800
     17 C17        -8.9181    4.4783   50.8418 C.3     1  ZINC000740843182   -0.1900
     18 C18        -4.4134    2.2106   50.4652 C.ar    1  ZINC000740843182    0.0100
     19 C19        -3.1167    2.6917   50.4847 C.ar    1  ZINC000740843182   -0.1200
     20 C20        -2.6111    3.2754   51.6292 C.ar    1  ZINC000740843182    0.0100
     21 Br21       -0.8382    3.9327   51.6546 Br      1  ZINC000740843182    0.0100
     22 C22        -0.6380    3.3783   58.3488 C.3     1  ZINC000740843182   -0.1400
     23 C23         0.0799    2.2972   59.1592 C.3     1  ZINC000740843182    0.1000
     24 H24        -0.6543    1.6080   59.5762 H       1  ZINC000740843182    0.1000
     25 C25         0.8688    2.9510   60.2955 C.3     1  ZINC000740843182   -0.1900
     26 O26         0.9764    1.5803   58.3080 O.3     1  ZINC000740843182   -0.5600
     27 H27        -2.2208    1.1599   58.2863 H       1  ZINC000740843182    0.0600
     28 H28        -3.2399    2.6066   58.0946 H       1  ZINC000740843182    0.0600
     29 H29        -3.0200    1.4858   56.7295 H       1  ZINC000740843182    0.0500
     30 H30        -2.5335    4.4444   56.6316 H       1  ZINC000740843182    0.0700
     31 H31        -0.9061    4.4645   55.9108 H       1  ZINC000740843182    0.0700
     32 H32        -2.2254    2.2626   54.8159 H       1  ZINC000740843182    0.4000
     33 H33        -5.3406    2.9557   53.6227 H       1  ZINC000740843182    0.1500
     34 H34        -7.9603    1.7937   49.5382 H       1  ZINC000740843182    0.4200
     35 H35        -6.7933    4.3710   50.1049 H       1  ZINC000740843182    0.1400
     36 H36        -8.7325    5.2840   48.7476 H       1  ZINC000740843182    0.1100
     37 H37        -9.5780    3.6485   48.8556 H       1  ZINC000740843182    0.1000
     38 H38        -9.6043    3.8291   51.3856 H       1  ZINC000740843182    0.1000
     39 H39        -8.7588    5.4646   51.2776 H       1  ZINC000740843182    0.1100
     40 H40        -4.8055    1.7583   49.5663 H       1  ZINC000740843182    0.1600
     41 H41        -2.4998    2.6143   49.6017 H       1  ZINC000740843182    0.1500
     42 H42         0.0857    4.1207   58.0122 H       1  ZINC000740843182    0.0700
     43 H43        -1.3900    3.8609   58.9730 H       1  ZINC000740843182    0.0800
     44 H44         0.1849    3.4977   60.9448 H       1  ZINC000740843182    0.0700
     45 H45         1.3802    2.1807   60.8728 H       1  ZINC000740843182    0.0600
     46 H46         1.6030    3.6402   59.8785 H       1  ZINC000740843182    0.0600
     47 H47         0.5422    1.1265   57.5726 H       1  ZINC000740843182    0.3700
@<TRIPOS>BOND
     1     1     2    1
     2     1    27    1
     3     1    28    1
     4     1    29    1
     5     2     3    1
     6     2     4    1
     7     2    22    1
     8     4     5    1
     9     4    30    1
    10     4    31    1
    11     5     6   am
    12     5    32    1
    13     6     7    2
    14     6     8    1
    15     8    20   ar
    16     8     9   ar
    17     9    10   ar
    18     9    33    1
    19    10    11    1
    20    10    18   ar
    21    11    12    2
    22    11    13    2
    23    11    14   am
    24    14    15    1
    25    14    34    1
    26    15    17    1
    27    15    16    1
    28    15    35    1
    29    16    17    1
    30    16    36    1
    31    16    37    1
    32    17    38    1
    33    17    39    1
    34    18    19   ar
    35    18    40    1
    36    19    20   ar
    37    19    41    1
    38    20    21    1
    39    22    23    1
    40    22    42    1
    41    22    43    1
    42    23    24    1
    43    23    25    1
    44    23    26    1
    45    25    44    1
    46    25    45    1
    47    25    46    1
    48    26    47    1
@<TRIPOS>SUBSTRUCTURE
     1 ZINC000740843182        1 TEMP              0 ****  ****    0 ROOT


##########                                Name:    ZINC000460972051
##########                DOCK_Rotatable_Bonds:                  10
##########                         Heavy_Atoms:                  29
##########                    Molecular_Weight:             417.572
##########                DOCK_Rotatable_Bonds:                  10
##########                       Formal_Charge:         3.31551e-07
##########                     HBond_Acceptors:                   7
##########                        HBond_Donors:                   2
##########                         Heavy_Atoms:                  29
##########                          Grid_Score:          -32.328201
##########                     Grid_vdw_energy:          -31.786322
##########                      Grid_es_energy:           -0.541881
##########           Internal_energy_repulsive:           34.378464

@<TRIPOS>MOLECULE
ZINC000460972051
 60 61 1 0 0
SMALL
USER_CHARGES


@<TRIPOS>ATOM
      1 C1         -9.6531   -2.0682   60.2057 C.3     1  ZINC000460972051   -0.1800
      2 C2         -9.4677   -0.6211   59.7447 C.3     1  ZINC000460972051    0.1000
      3 N3        -10.7639    0.0618   59.7466 N.am    1  ZINC000460972051   -0.6200
      4 C4        -11.5733   -0.0258   58.6725 C.2     1  ZINC000460972051    0.7100
      5 O5        -12.6484    0.5421   58.6735 O.2     1  ZINC000460972051   -0.5800
      6 N6        -11.1909   -0.7429   57.5973 N.am    1  ZINC000460972051   -0.7400
      7 C7        -12.0699   -0.8367   56.4291 C.3     1  ZINC000460972051    0.2000
      8 H8        -12.6682    0.0712   56.3507 H       1  ZINC000460972051    0.1100
      9 C9        -11.2230   -0.9999   55.1654 C.3     1  ZINC000460972051    0.1100
     10 N10       -12.0659   -0.8017   53.9836 N.am    1  ZINC000460972051   -1.1200
     11 S11       -11.4656   -1.1252   52.4746 S.o2    1  ZINC000460972051    2.7000
     12 O12       -10.9681   -2.4556   52.5174 O.2     1  ZINC000460972051   -0.9500
     13 O13       -12.4538   -0.6944   51.5488 O.2     1  ZINC000460972051   -0.9600
     14 C14       -10.0684   -0.0790   52.2337 C.ar    1  ZINC000460972051   -0.6900
     15 C15        -8.7985   -0.6221   52.1857 C.ar    1  ZINC000460972051   -0.0100
     16 C16        -7.7022    0.1989   51.9967 C.ar    1  ZINC000460972051   -0.1500
     17 C17        -7.8763    1.5627   51.8552 C.ar    1  ZINC000460972051   -0.0200
     18 C18        -6.6814    2.4576   51.6497 C.3     1  ZINC000460972051   -0.1300
     19 C19        -9.1469    2.1059   51.9018 C.ar    1  ZINC000460972051   -0.1500
     20 C20       -10.2431    1.2847   52.0870 C.ar    1  ZINC000460972051    0.0300
     21 C21       -11.6280    1.8767   52.1378 C.3     1  ZINC000460972051   -0.1700
     22 C22       -12.9812   -2.0273   56.5803 C.ar    1  ZINC000460972051   -0.1000
     23 C23       -14.3522   -1.8602   56.5216 C.ar    1  ZINC000460972051   -0.1000
     24 C24       -15.1882   -2.9523   56.6603 C.ar    1  ZINC000460972051   -0.1200
     25 C25       -14.6533   -4.2116   56.8573 C.ar    1  ZINC000460972051   -0.1200
     26 C26       -13.2823   -4.3789   56.9151 C.ar    1  ZINC000460972051   -0.1200
     27 C27       -12.4462   -3.2873   56.7721 C.ar    1  ZINC000460972051   -0.1000
     28 C28       -11.1802    0.8398   60.9160 C.3     1  ZINC000460972051    0.1500
     29 C29       -12.0184   -0.0424   61.8435 C.3     1  ZINC000460972051   -0.1600
     30 C30        -9.9422    1.3361   61.6657 C.3     1  ZINC000460972051   -0.1600
     31 H31        -8.6887   -2.5762   60.2044 H       1  ZINC000460972051    0.0700
     32 H32       -10.0675   -2.0781   61.2137 H       1  ZINC000460972051    0.0600
     33 H33       -10.3349   -2.5810   59.5274 H       1  ZINC000460972051    0.0700
     34 H34        -8.7859   -0.1081   60.4231 H       1  ZINC000460972051    0.0700
     35 H35        -9.0532   -0.6111   58.7366 H       1  ZINC000460972051    0.0900
     36 H36       -10.3337   -1.1970   57.5971 H       1  ZINC000460972051    0.4000
     37 H37       -10.4211   -0.2617   55.1676 H       1  ZINC000460972051    0.0900
     38 H38       -10.7946   -2.0019   55.1421 H       1  ZINC000460972051    0.0900
     39 H39       -12.9757   -0.4810   54.0851 H       1  ZINC000460972051    0.4200
     40 H40        -8.6623   -1.6878   52.2964 H       1  ZINC000460972051    0.1400
     41 H41        -6.7097   -0.2254   51.9600 H       1  ZINC000460972051    0.1300
     42 H42        -6.4809    2.5566   50.5828 H       1  ZINC000460972051    0.0800
     43 H43        -6.8865    3.4406   52.0736 H       1  ZINC000460972051    0.0700
     44 H44        -5.8126    2.0229   52.1438 H       1  ZINC000460972051    0.0700
     45 H45        -9.2831    3.1714   51.7909 H       1  ZINC000460972051    0.1300
     46 H46       -12.0897    1.8060   51.1529 H       1  ZINC000460972051    0.0900
     47 H47       -12.2310    1.3289   52.8619 H       1  ZINC000460972051    0.1000
     48 H48       -11.5650    2.9235   52.4352 H       1  ZINC000460972051    0.0900
     49 H49       -14.7702   -0.8763   56.3677 H       1  ZINC000460972051    0.1200
     50 H50       -16.2593   -2.8216   56.6152 H       1  ZINC000460972051    0.1200
     51 H51       -15.3065   -5.0648   56.9664 H       1  ZINC000460972051    0.1200
     52 H52       -12.8643   -5.3627   57.0694 H       1  ZINC000460972051    0.1200
     53 H53       -11.3751   -3.4181   56.8173 H       1  ZINC000460972051    0.1200
     54 H54       -11.7749    1.6936   60.5914 H       1  ZINC000460972051    0.1000
     55 H55       -12.9005   -0.3960   61.3095 H       1  ZINC000460972051    0.0600
     56 H56       -11.4238   -0.8963   62.1681 H       1  ZINC000460972051    0.0600
     57 H57       -12.3282    0.5365   62.7136 H       1  ZINC000460972051    0.0700
     58 H58        -9.3451    1.9645   61.0050 H       1  ZINC000460972051    0.0600
     59 H59       -10.2520    1.9149   62.5357 H       1  ZINC000460972051    0.0700
     60 H60        -9.3476    0.4822   61.9903 H       1  ZINC000460972051    0.0600
@<TRIPOS>BOND
     1     1     2    1
     2     1    31    1
     3     1    32    1
     4     1    33    1
     5     2     3    1
     6     2    34    1
     7     2    35    1
     8     3     4   am
     9     3    28    1
    10     4     5    2
    11     4     6   am
    12     6     7    1
    13     6    36    1
    14     7     8    1
    15     7     9    1
    16     7    22    1
    17     9    10    1
    18     9    37    1
    19     9    38    1
    20    10    11   am
    21    10    39    1
    22    11    12    2
    23    11    13    2
    24    11    14    1
    25    14    20   ar
    26    14    15   ar
    27    15    16   ar
    28    15    40    1
    29    16    17   ar
    30    16    41    1
    31    17    18    1
    32    17    19   ar
    33    18    42    1
    34    18    43    1
    35    18    44    1
    36    19    20   ar
    37    19    45    1
    38    20    21    1
    39    21    46    1
    40    21    47    1
    41    21    48    1
    42    22    27   ar
    43    22    23   ar
    44    23    24   ar
    45    23    49    1
    46    24    25   ar
    47    24    50    1
    48    25    26   ar
    49    25    51    1
    50    26    27   ar
    51    26    52    1
    52    27    53    1
    53    28    29    1
    54    28    30    1
    55    28    54    1
    56    29    55    1
    57    29    56    1
    58    29    57    1
    59    30    58    1
    60    30    59    1
    61    30    60    1
@<TRIPOS>SUBSTRUCTURE
     1 ZINC000460972051        1 TEMP              0 ****  ****    0 ROOT


##########                                Name:    ZINC000957079511
##########                DOCK_Rotatable_Bonds:                   8
##########                         Heavy_Atoms:                  25
##########                    Molecular_Weight:             362.453
##########                DOCK_Rotatable_Bonds:                   8
##########                       Formal_Charge:        -4.32134e-07
##########                     HBond_Acceptors:                   8
##########                        HBond_Donors:                   2
##########                         Heavy_Atoms:                  25
##########                          Grid_Score:          -32.294727
##########                     Grid_vdw_energy:          -30.570631
##########                      Grid_es_energy:           -1.724095
##########           Internal_energy_repulsive:           22.754436

@<TRIPOS>MOLECULE
ZINC000957079511
 47 49 1 0 0
SMALL
USER_CHARGES


@<TRIPOS>ATOM
      1 C1         -7.5897    0.1037   66.6880 C.3     1  ZINC000957079511   -0.0700
      2 C2         -8.3167    1.0939   65.8150 C.2     1  ZINC000957079511    0.0300
      3 C3         -8.6351    0.9210   64.5180 C.2     1  ZINC000957079511   -0.0200
      4 C4         -8.3337   -0.2897   63.6727 C.3     1  ZINC000957079511   -0.0600
      5 C5         -9.3996   -0.4443   62.6187 C.2     1  ZINC000957079511    0.5100
      6 O6        -10.5189   -0.0239   62.8217 O.2     1  ZINC000957079511   -0.5200
      7 N7         -9.1090   -1.0501   61.4502 N.am    1  ZINC000957079511   -0.7200
      8 C8        -10.1456   -1.2020   60.4262 C.3     1  ZINC000957079511    0.1400
      9 H9        -11.1338   -1.2714   60.8809 H       1  ZINC000957079511    0.1100
     10 C10        -9.8611   -2.4303   59.5261 C.3     1  ZINC000957079511    0.0800
     11 N11       -10.5448   -2.1327   58.2544 N.am    1  ZINC000957079511   -0.6200
     12 C12       -10.9681   -3.0457   57.3579 C.2     1  ZINC000957079511    0.5400
     13 O13       -10.7939   -4.2275   57.5674 O.2     1  ZINC000957079511   -0.5100
     14 C14       -11.6578   -2.5980   56.0949 C.3     1  ZINC000957079511    0.0500
     15 O15       -12.6135   -3.5840   55.6989 O.3     1  ZINC000957079511   -0.2800
     16 C16       -13.6205   -3.8562   56.5750 C.2     1  ZINC000957079511    0.1200
     17 C17       -14.5708   -4.7605   56.3206 C.2     1  ZINC000957079511   -0.3300
     18 S18       -15.6912   -4.8360   57.6742 S.3     1  ZINC000957079511    0.1300
     19 C19       -14.7826   -3.6012   58.5359 C.2     1  ZINC000957079511   -0.1800
     20 C20       -13.7352   -3.2204   57.8019 C.2     1  ZINC000957079511   -0.1400
     21 C21       -10.6893   -0.6752   58.1266 C.3     1  ZINC000957079511    0.1100
     22 C22       -10.0866   -0.0412   59.3985 C.3     1  ZINC000957079511   -0.1100
     23 H23        -9.0555    0.2669   59.2244 H       1  ZINC000957079511    0.0900
     24 C24       -10.9326    1.1453   59.8649 C.3     1  ZINC000957079511   -0.1400
     25 N25        -9.2856    2.0559   64.1151 N.pl3   1  ZINC000957079511   -0.5600
     26 C26        -9.3421    2.8835   65.1808 C.2     1  ZINC000957079511    0.2000
     27 N27        -8.7650    2.2995   66.1952 N.2     1  ZINC000957079511   -0.4900
     28 H28        -8.3124   -0.5543   67.1707 H       1  ZINC000957079511    0.0700
     29 H29        -6.9100   -0.4896   66.0764 H       1  ZINC000957079511    0.0600
     30 H30        -7.0211    0.6388   67.4486 H       1  ZINC000957079511    0.0700
     31 H31        -7.3631   -0.1651   63.1924 H       1  ZINC000957079511    0.1000
     32 H32        -8.3153   -1.1781   64.3039 H       1  ZINC000957079511    0.1200
     33 H33        -8.2134   -1.3853   61.2873 H       1  ZINC000957079511    0.4000
     34 H34        -8.7889   -2.5412   59.3635 H       1  ZINC000957079511    0.0800
     35 H35       -10.2728   -3.3337   59.9759 H       1  ZINC000957079511    0.0800
     36 H36       -12.1663   -1.6509   56.2749 H       1  ZINC000957079511    0.0900
     37 H37       -10.9193   -2.4695   55.3036 H       1  ZINC000957079511    0.0900
     38 H38       -14.6407   -5.3539   55.4209 H       1  ZINC000957079511    0.1700
     39 H39       -15.0319   -3.2132   59.5124 H       1  ZINC000957079511    0.1800
     40 H40       -13.0347   -2.4689   58.1349 H       1  ZINC000957079511    0.1500
     41 H41       -10.1502   -0.3251   57.2463 H       1  ZINC000957079511    0.0800
     42 H42       -11.7442   -0.4129   58.0465 H       1  ZINC000957079511    0.0800
     43 H43       -11.9509    0.8102   60.0618 H       1  ZINC000957079511    0.0600
     44 H44       -10.5040    1.5608   60.7770 H       1  ZINC000957079511    0.0600
     45 H45       -10.9453    1.9100   59.0883 H       1  ZINC000957079511    0.0700
     46 H46        -9.6399    2.2328   63.2296 H       1  ZINC000957079511    0.4200
     47 H47        -9.7936    3.8646   65.1926 H       1  ZINC000957079511    0.2100
@<TRIPOS>BOND
     1     1     2    1
     2     1    28    1
     3     1    29    1
     4     1    30    1
     5     2    27    1
     6     2     3    2
     7     3     4    1
     8     3    25    1
     9     4     5    1
    10     4    31    1
    11     4    32    1
    12     5     6    2
    13     5     7   am
    14     7     8    1
    15     7    33    1
    16     8     9    1
    17     8    22    1
    18     8    10    1
    19    10    11    1
    20    10    34    1
    21    10    35    1
    22    11    12   am
    23    11    21    1
    24    12    13    2
    25    12    14    1
    26    14    15    1
    27    14    36    1
    28    14    37    1
    29    15    16    1
    30    16    20    1
    31    16    17    2
    32    17    18    1
    33    17    38    1
    34    18    19    1
    35    19    20    2
    36    19    39    1
    37    20    40    1
    38    21    22    1
    39    21    41    1
    40    21    42    1
    41    22    23    1
    42    22    24    1
    43    24    43    1
    44    24    44    1
    45    24    45    1
    46    25    26    1
    47    25    46    1
    48    26    27    2
    49    26    47    1
@<TRIPOS>SUBSTRUCTURE
     1 ZINC000957079511        1 TEMP              0 ****  ****    0 ROOT


##########                                Name:    ZINC000963156778
##########                DOCK_Rotatable_Bonds:                   6
##########                         Heavy_Atoms:                  24
##########                    Molecular_Weight:             349.414
##########                DOCK_Rotatable_Bonds:                   6
##########                       Formal_Charge:         -0.00999984
##########                     HBond_Acceptors:                   9
##########                        HBond_Donors:                   2
##########                         Heavy_Atoms:                  24
##########                          Grid_Score:          -32.293861
##########                     Grid_vdw_energy:          -29.420038
##########                      Grid_es_energy:           -2.873824
##########           Internal_energy_repulsive:            7.636558

@<TRIPOS>MOLECULE
ZINC000963156778
 43 46 1 0 0
SMALL
USER_CHARGES


@<TRIPOS>ATOM
      1 C1         -8.4377    4.2022   50.0209 C.3     1  ZINC000963156778   -0.0800
      2 C2         -7.3056    3.2648   50.3539 C.2     1  ZINC000963156778    0.0300
      3 C3         -7.4066    2.2491   51.2426 C.2     1  ZINC000963156778   -0.2600
      4 C4         -8.6095    1.8465   52.0563 C.3     1  ZINC000963156778    0.1300
      5 N5         -8.6294    2.6095   53.3115 N.3     1  ZINC000963156778   -0.5000
      6 C6         -7.4753    2.2465   54.1735 C.3     1  ZINC000963156778    0.0600
      7 C7         -7.9014    2.6740   55.5943 C.3     1  ZINC000963156778   -0.1700
      8 H8         -7.3319    3.4698   56.0744 H       1  ZINC000963156778    0.1200
      9 C9         -9.4436    2.6825   55.5648 C.3     1  ZINC000963156778   -0.1700
     10 H10       -10.0226    3.4773   56.0351 H       1  ZINC000963156778    0.1200
     11 C11        -9.8196    2.2593   54.1285 C.3     1  ZINC000963156778    0.0600
     12 C12        -8.6546    1.6597   56.4574 C.3     1  ZINC000963156778    0.1200
     13 H13        -8.6456    0.6174   56.1387 H       1  ZINC000963156778    0.1400
     14 N14        -8.6688    1.8766   57.9062 N.am    1  ZINC000963156778   -0.7000
     15 C15        -9.7332    1.4872   58.6355 C.2     1  ZINC000963156778    0.5100
     16 O16       -10.6786    0.9559   58.0925 O.2     1  ZINC000963156778   -0.5000
     17 C17        -9.7485    1.7119   60.1256 C.3     1  ZINC000963156778   -0.1300
     18 C18       -10.0941    0.4014   60.8354 C.3     1  ZINC000963156778   -0.1100
     19 H19       -11.0719    0.0400   60.5167 H       1  ZINC000963156778    0.1300
     20 C20       -10.0565    0.5868   62.3661 C.3     1  ZINC000963156778   -0.1600
     21 C21        -8.9729   -0.3700   62.8127 C.2     1  ZINC000963156778    0.5300
     22 O22        -8.6160   -0.5414   63.9586 O.2     1  ZINC000963156778   -0.4800
     23 N23        -8.4708   -0.9977   61.7421 N.am    1  ZINC000963156778   -0.6900
     24 C24        -9.0298   -0.6421   60.5748 C.2     1  ZINC000963156778    0.5200
     25 O25        -8.7273   -1.0850   59.4876 O.2     1  ZINC000963156778   -0.4500
     26 S26        -5.8466    1.5221   51.2300 S.3     1  ZINC000963156778    0.4500
     27 N27        -5.2255    2.4934   50.1715 N.2     1  ZINC000963156778   -0.2900
     28 N28        -6.1088    3.3392   49.8083 N.2     1  ZINC000963156778   -0.2400
     29 H29        -9.0134    3.7956   49.1894 H       1  ZINC000963156778    0.0900
     30 H30        -9.0850    4.3136   50.8908 H       1  ZINC000963156778    0.0800
     31 H31        -8.0335    5.1752   49.7416 H       1  ZINC000963156778    0.0800
     32 H32        -9.5175    2.0545   51.4901 H       1  ZINC000963156778    0.1000
     33 H33        -8.5569    0.7809   52.2796 H       1  ZINC000963156778    0.0700
     34 H34        -7.2970    1.1717   54.1373 H       1  ZINC000963156778    0.0600
     35 H35        -6.5834    2.7913   53.8640 H       1  ZINC000963156778    0.0800
     36 H36       -10.6929    2.8139   53.7852 H       1  ZINC000963156778    0.1000
     37 H37       -10.0083    1.1867   54.0853 H       1  ZINC000963156778    0.0500
     38 H38        -7.9122    2.3006   58.3405 H       1  ZINC000963156778    0.4000
     39 H39        -8.7663    2.0537   60.4516 H       1  ZINC000963156778    0.1000
     40 H40       -10.4959    2.4664   60.3715 H       1  ZINC000963156778    0.1200
     41 H41        -9.7916    1.6128   62.6218 H       1  ZINC000963156778    0.1200
     42 H42       -11.0147    0.3152   62.8091 H       1  ZINC000963156778    0.1300
     43 H43        -7.7619   -1.6569   61.8046 H       1  ZINC000963156778    0.4200
@<TRIPOS>BOND
     1     1     2    1
     2     1    29    1
     3     1    30    1
     4     1    31    1
     5     2    28    1
     6     2     3    2
     7     3     4    1
     8     3    26    1
     9     4     5    1
    10     4    32    1
    11     4    33    1
    12     5    11    1
    13     5     6    1
    14     6     7    1
    15     6    34    1
    16     6    35    1
    17     7     8    1
    18     7    12    1
    19     7     9    1
    20     9    10    1
    21     9    11    1
    22     9    12    1
    23    11    36    1
    24    11    37    1
    25    12    13    1
    26    12    14    1
    27    14    15   am
    28    14    38    1
    29    15    16    2
    30    15    17    1
    31    17    18    1
    32    17    39    1
    33    17    40    1
    34    18    19    1
    35    18    24    1
    36    18    20    1
    37    20    21    1
    38    20    41    1
    39    20    42    1
    40    21    22    2
    41    21    23   am
    42    23    24   am
    43    23    43    1
    44    24    25    2
    45    26    27    1
    46    27    28    2
@<TRIPOS>SUBSTRUCTURE
     1 ZINC000963156778        1 TEMP              0 ****  ****    0 ROOT


##########                                Name:    ZINC001109404798
##########                DOCK_Rotatable_Bonds:                   7
##########                         Heavy_Atoms:                  25
##########                    Molecular_Weight:              360.48
##########                DOCK_Rotatable_Bonds:                   7
##########                       Formal_Charge:           0.0100002
##########                     HBond_Acceptors:                   7
##########                        HBond_Donors:                   1
##########                         Heavy_Atoms:                  25
##########                          Grid_Score:          -32.276428
##########                     Grid_vdw_energy:          -31.998377
##########                      Grid_es_energy:           -0.278050
##########           Internal_energy_repulsive:           27.246004

@<TRIPOS>MOLECULE
ZINC001109404798
 49 52 1 0 0
SMALL
USER_CHARGES


@<TRIPOS>ATOM
      1 C1         -6.9941    2.0712   50.3335 C.3     1  ZINC001109404798   -0.0600
      2 C2         -7.7385    1.3722   51.4418 C.2     1  ZINC001109404798    0.1700
      3 N3         -7.2922    0.3924   52.1693 N.2     1  ZINC001109404798   -0.3900
      4 O4         -8.1320    0.0514   52.9754 O.3     1  ZINC001109404798    0.1000
      5 C5         -9.2272    0.8043   52.8344 C.2     1  ZINC001109404798    0.1900
      6 C6        -10.4962    0.7026   53.6407 C.3     1  ZINC001109404798    0.1600
      7 H7        -11.3555    0.8467   52.9857 H       1  ZINC001109404798    0.1000
      8 C8        -10.4974    1.7793   54.7278 C.3     1  ZINC001109404798   -0.1500
      9 N9        -10.5741   -0.6245   54.2659 N.3     1  ZINC001109404798   -0.4800
     10 C10       -10.8795   -1.6865   53.2420 C.3     1  ZINC001109404798    0.0400
     11 H11       -10.1270   -1.8301   52.4666 H       1  ZINC001109404798    0.1100
     12 C12       -12.2814   -1.2243   52.7420 C.3     1  ZINC001109404798   -0.1600
     13 C13       -12.9248   -0.5934   54.0011 C.3     1  ZINC001109404798   -0.1600
     14 C14       -11.8256   -0.7587   55.0937 C.3     1  ZINC001109404798    0.0400
     15 H15       -11.9058   -0.0859   55.9475 H       1  ZINC001109404798    0.1200
     16 C16       -11.8192   -2.2796   55.4337 C.3     1  ZINC001109404798    0.1500
     17 H17       -11.2097   -2.4729   56.3164 H       1  ZINC001109404798    0.1000
     18 N18       -13.1852   -2.7689   55.6349 N.am    1  ZINC001109404798   -0.7200
     19 C19       -13.4376   -3.6914   56.5846 C.2     1  ZINC001109404798    0.5100
     20 O20       -12.5340   -4.1152   57.2737 O.2     1  ZINC001109404798   -0.5300
     21 C21       -14.8426   -4.1961   56.7904 C.3     1  ZINC001109404798   -0.1300
     22 C22       -15.6876   -3.1005   57.4434 C.3     1  ZINC001109404798   -0.0400
     23 C23       -15.1847   -2.8437   58.8406 C.2     1  ZINC001109404798   -0.1000
     24 C24       -15.6229   -3.5286   59.8980 C.2     1  ZINC001109404798   -0.2100
     25 S25       -14.8134   -2.9537   61.3498 S.3     1  ZINC001109404798    0.1000
     26 C26       -13.8983   -1.7810   60.4113 C.2     1  ZINC001109404798   -0.2100
     27 C27       -14.2287   -1.8834   59.1231 C.2     1  ZINC001109404798   -0.1300
     28 C28       -11.1435   -2.9182   54.1598 C.3     1  ZINC001109404798   -0.1100
     29 N29        -8.9846    1.6519   51.8635 N.2     1  ZINC001109404798   -0.4800
     30 H30        -6.4342    2.9110   50.7451 H       1  ZINC001109404798    0.0900
     31 H31        -6.3046    1.3715   49.8612 H       1  ZINC001109404798    0.0900
     32 H32        -7.7050    2.4368   49.5926 H       1  ZINC001109404798    0.0900
     33 H33       -10.4396    2.7640   54.2639 H       1  ZINC001109404798    0.0700
     34 H34       -11.4153    1.7057   55.3109 H       1  ZINC001109404798    0.0800
     35 H35        -9.6382    1.6353   55.3828 H       1  ZINC001109404798    0.0800
     36 H36       -12.1808   -0.4825   51.9498 H       1  ZINC001109404798    0.0700
     37 H37       -12.8666   -2.0773   52.3985 H       1  ZINC001109404798    0.0800
     38 H38       -13.1431    0.4611   53.8330 H       1  ZINC001109404798    0.0700
     39 H39       -13.8290   -1.1336   54.2817 H       1  ZINC001109404798    0.0800
     40 H40       -13.9082   -2.4292   55.0846 H       1  ZINC001109404798    0.4000
     41 H41       -15.2769   -4.4647   55.8275 H       1  ZINC001109404798    0.0900
     42 H42       -14.8224   -5.0733   57.4372 H       1  ZINC001109404798    0.1000
     43 H43       -15.6125   -2.1852   56.8562 H       1  ZINC001109404798    0.0800
     44 H44       -16.7286   -3.4210   57.4852 H       1  ZINC001109404798    0.0800
     45 H45       -16.3620   -4.3155   59.8675 H       1  ZINC001109404798    0.1600
     46 H46       -13.1759   -1.0874   60.8156 H       1  ZINC001109404798    0.1600
     47 H47       -13.7894   -1.2587   58.3593 H       1  ZINC001109404798    0.1400
     48 H48       -11.8301   -3.6052   53.6649 H       1  ZINC001109404798    0.0800
     49 H49       -10.2184   -3.4271   54.4304 H       1  ZINC001109404798    0.0900
@<TRIPOS>BOND
     1     1     2    1
     2     1    30    1
     3     1    31    1
     4     1    32    1
     5     2    29    1
     6     2     3    2
     7     3     4    1
     8     4     5    1
     9     5     6    1
    10     5    29    2
    11     6     7    1
    12     6     8    1
    13     6     9    1
    14     8    33    1
    15     8    34    1
    16     8    35    1
    17     9    14    1
    18     9    10    1
    19    10    11    1
    20    10    28    1
    21    10    12    1
    22    12    13    1
    23    12    36    1
    24    12    37    1
    25    13    14    1
    26    13    38    1
    27    13    39    1
    28    14    15    1
    29    14    16    1
    30    16    17    1
    31    16    18    1
    32    16    28    1
    33    18    19   am
    34    18    40    1
    35    19    20    2
    36    19    21    1
    37    21    22    1
    38    21    41    1
    39    21    42    1
    40    22    23    1
    41    22    43    1
    42    22    44    1
    43    23    27    1
    44    23    24    2
    45    24    25    1
    46    24    45    1
    47    25    26    1
    48    26    27    2
    49    26    46    1
    50    27    47    1
    51    28    48    1
    52    28    49    1
@<TRIPOS>SUBSTRUCTURE
     1 ZINC001109404798        1 TEMP              0 ****  ****    0 ROOT


##########                                Name:    ZINC000482910431
##########                DOCK_Rotatable_Bonds:                   7
##########                         Heavy_Atoms:                  29
##########                    Molecular_Weight:             414.867
##########                DOCK_Rotatable_Bonds:                   7
##########                       Formal_Charge:          -0.0300001
##########                     HBond_Acceptors:                   8
##########                        HBond_Donors:                   2
##########                         Heavy_Atoms:                  29
##########                          Grid_Score:          -32.276260
##########                     Grid_vdw_energy:          -32.617363
##########                      Grid_es_energy:            0.341103
##########           Internal_energy_repulsive:           20.443016

@<TRIPOS>MOLECULE
ZINC000482910431
 49 51 1 0 0
SMALL
USER_CHARGES


@<TRIPOS>ATOM
      1 C1        -16.2661   -2.7626   56.3393 C.3     1  ZINC000482910431   -0.1500
      2 C2        -14.9580   -3.2842   56.9374 C.3     1  ZINC000482910431    0.0800
      3 C3        -14.7303   -2.6396   58.3062 C.3     1  ZINC000482910431   -0.1400
      4 C4        -15.0369   -4.7461   57.0905 C.1     1  ZINC000482910431    0.2100
      5 N5        -15.0978   -5.8743   57.2086 N.1     1  ZINC000482910431   -0.4300
      6 C6        -13.8130   -2.9362   56.0216 C.ar    1  ZINC000482910431   -0.1000
      7 C7        -14.0678   -2.4525   54.7515 C.ar    1  ZINC000482910431   -0.0900
      8 C8        -13.0206   -2.1322   53.9099 C.ar    1  ZINC000482910431   -0.1200
      9 C9        -11.7106   -2.2962   54.3404 C.ar    1  ZINC000482910431    0.1700
     10 N10       -10.6473   -1.9721   53.4902 N.am    1  ZINC000482910431   -0.6800
     11 C11       -10.3441   -0.6807   53.2525 C.2     1  ZINC000482910431    0.7100
     12 O12       -10.9945    0.2029   53.7766 O.2     1  ZINC000482910431   -0.5500
     13 N13        -9.3200   -0.3685   52.4337 N.am    1  ZINC000482910431   -0.7300
     14 C14        -8.9916    1.0353   52.1740 C.3     1  ZINC000482910431    0.1400
     15 H15        -9.7980    1.5192   51.6231 H       1  ZINC000482910431    0.1400
     16 C16        -8.7183    1.7815   53.5004 C.3     1  ZINC000482910431   -0.1400
     17 C17        -7.5798    2.7427   53.0923 C.3     1  ZINC000482910431    0.0900
     18 N18        -6.9159    2.1012   51.9515 N.am    1  ZINC000482910431   -0.5600
     19 C19        -5.6417    2.4440   51.4843 C.ar    1  ZINC000482910431    0.2000
     20 C20        -5.4567    2.7747   50.1485 C.ar    1  ZINC000482910431   -0.1600
     21 C21        -4.1987    3.1129   49.6887 C.ar    1  ZINC000482910431   -0.0500
     22 C22        -3.1225    3.1225   50.5574 C.ar    1  ZINC000482910431   -0.1000
     23 Cl23       -1.5430    3.5480   49.9759 Cl      1  ZINC000482910431   -0.0500
     24 C24        -3.3034    2.7935   51.8918 C.ar    1  ZINC000482910431    0.1400
     25 F25        -2.2509    2.8041   52.7387 F       1  ZINC000482910431   -0.1200
     26 C26        -4.5620    2.4594   52.3574 C.ar    1  ZINC000482910431   -0.1900
     27 C27        -7.6902    1.1419   51.4099 C.2     1  ZINC000482910431    0.5000
     28 O28        -7.3861    0.4616   50.4529 O.2     1  ZINC000482910431   -0.4800
     29 C29       -11.4580   -2.7823   55.6165 C.ar    1  ZINC000482910431   -0.1400
     30 C30       -12.5096   -3.0957   56.4551 C.ar    1  ZINC000482910431   -0.0900
     31 H31       -16.2076   -1.6801   56.2260 H       1  ZINC000482910431    0.0800
     32 H32       -16.4283   -3.2219   55.3641 H       1  ZINC000482910431    0.0700
     33 H33       -17.0944   -3.0144   57.0018 H       1  ZINC000482910431    0.0700
     34 H34       -15.5586   -2.8914   58.9687 H       1  ZINC000482910431    0.0700
     35 H35       -13.7984   -3.0112   58.7323 H       1  ZINC000482910431    0.0700
     36 H36       -14.6719   -1.5571   58.1929 H       1  ZINC000482910431    0.0800
     37 H37       -15.0869   -2.3254   54.4171 H       1  ZINC000482910431    0.1400
     38 H38       -13.2204   -1.7547   52.9178 H       1  ZINC000482910431    0.1400
     39 H39       -10.1286   -2.6771   53.0720 H       1  ZINC000482910431    0.4100
     40 H40        -8.8005   -1.0734   52.0165 H       1  ZINC000482910431    0.4000
     41 H41        -9.5991    2.3356   53.8249 H       1  ZINC000482910431    0.1100
     42 H42        -8.3864    1.0907   54.2755 H       1  ZINC000482910431    0.1000
     43 H43        -7.9896    3.7083   52.7960 H       1  ZINC000482910431    0.0900
     44 H44        -6.8774    2.8670   53.9165 H       1  ZINC000482910431    0.1000
     45 H45        -6.2962    2.7671   49.4690 H       1  ZINC000482910431    0.1700
     46 H46        -4.0553    3.3696   48.6495 H       1  ZINC000482910431    0.1500
     47 H47        -4.7037    2.2033   53.3969 H       1  ZINC000482910431    0.1500
     48 H48       -10.4403   -2.9110   55.9542 H       1  ZINC000482910431    0.1300
     49 H49       -12.3138   -3.4734   57.4479 H       1  ZINC000482910431    0.1300
@<TRIPOS>BOND
     1     1     2    1
     2     1    31    1
     3     1    32    1
     4     1    33    1
     5     2     3    1
     6     2     4    1
     7     2     6    1
     8     3    34    1
     9     3    35    1
    10     3    36    1
    11     4     5    3
    12     6    30   ar
    13     6     7   ar
    14     7     8   ar
    15     7    37    1
    16     8     9   ar
    17     8    38    1
    18     9    10    1
    19     9    29   ar
    20    10    11   am
    21    10    39    1
    22    11    12    2
    23    11    13   am
    24    13    14    1
    25    13    40    1
    26    14    15    1
    27    14    27    1
    28    14    16    1
    29    16    17    1
    30    16    41    1
    31    16    42    1
    32    17    18    1
    33    17    43    1
    34    17    44    1
    35    18    19    1
    36    18    27   am
    37    19    26   ar
    38    19    20   ar
    39    20    21   ar
    40    20    45    1
    41    21    22   ar
    42    21    46    1
    43    22    23    1
    44    22    24   ar
    45    24    25    1
    46    24    26   ar
    47    26    47    1
    48    27    28    2
    49    29    30   ar
    50    29    48    1
    51    30    49    1
@<TRIPOS>SUBSTRUCTURE
     1 ZINC000482910431        1 TEMP              0 ****  ****    0 ROOT


##########                                Name:    ZINC000740930783
##########                DOCK_Rotatable_Bonds:                  11
##########                         Heavy_Atoms:                  27
##########                    Molecular_Weight:             413.257
##########                DOCK_Rotatable_Bonds:                  11
##########                       Formal_Charge:          -0.0100004
##########                     HBond_Acceptors:                   9
##########                        HBond_Donors:                   4
##########                         Heavy_Atoms:                  27
##########                          Grid_Score:          -32.243885
##########                     Grid_vdw_energy:          -31.623705
##########                      Grid_es_energy:           -0.620179
##########           Internal_energy_repulsive:           16.545536

@<TRIPOS>MOLECULE
ZINC000740930783
 45 46 1 0 0
SMALL
USER_CHARGES


@<TRIPOS>ATOM
      1 C1        -11.0504   -1.9122   59.3033 C.3     1  ZINC000740930783    0.0200
      2 O2        -12.1528   -1.4605   58.5142 O.3     1  ZINC000740930783   -0.3000
      3 C3        -12.2980   -2.0153   57.2810 C.ar    1  ZINC000740930783    0.1200
      4 C4        -11.5618   -1.5335   56.2161 C.ar    1  ZINC000740930783   -0.1400
      5 C5        -11.7126   -2.1059   54.9501 C.ar    1  ZINC000740930783   -0.0800
      6 C6        -10.9278   -1.5947   53.8091 C.2     1  ZINC000740930783    0.5600
      7 O7        -10.7845   -2.2793   52.8146 O.2     1  ZINC000740930783   -0.5300
      8 N8        -10.3701   -0.3693   53.8699 N.am    1  ZINC000740930783   -0.7200
      9 C9         -9.5898    0.1374   52.7382 C.3     1  ZINC000740930783    0.0900
     10 C10        -8.4837    1.0601   53.2538 C.3     1  ZINC000740930783    0.1400
     11 H11        -7.7880    0.4865   53.8661 H       1  ZINC000740930783    0.1200
     12 O12        -9.0619    2.1036   54.0404 O.3     1  ZINC000740930783   -0.5500
     13 C13        -7.7462    1.6617   52.0854 C.ar    1  ZINC000740930783   -0.1100
     14 C14        -6.4510    1.2673   51.8084 C.ar    1  ZINC000740930783   -0.1000
     15 C15        -5.7742    1.8192   50.7364 C.ar    1  ZINC000740930783   -0.1100
     16 C16        -6.3923    2.7662   49.9417 C.ar    1  ZINC000740930783   -0.1000
     17 C17        -7.6878    3.1617   50.2178 C.ar    1  ZINC000740930783   -0.1100
     18 C18        -8.3676    2.6052   51.2864 C.ar    1  ZINC000740930783   -0.0300
     19 Cl19       -9.9946    3.1012   51.6338 Cl      1  ZINC000740930783   -0.0600
     20 C20       -12.6070   -3.1629   54.7666 C.ar    1  ZINC000740930783   -0.1000
     21 C21       -13.3392   -3.6395   55.8341 C.ar    1  ZINC000740930783   -0.0200
     22 Cl22      -14.4501   -4.9536   55.6047 Cl      1  ZINC000740930783   -0.0300
     23 C23       -13.1852   -3.0739   57.0931 C.ar    1  ZINC000740930783    0.0900
     24 O24       -13.9081   -3.5464   58.1414 O.3     1  ZINC000740930783   -0.2900
     25 C25       -15.0677   -2.8012   58.5182 C.3     1  ZINC000740930783    0.0400
     26 C26       -15.6614   -3.3946   59.7698 C.2     1  ZINC000740930783    0.5200
     27 N27       -15.2750   -2.9421   60.9791 N.am    1  ZINC000740930783   -0.8500
     28 O28       -16.4868   -4.2795   59.6889 O.2     1  ZINC000740930783   -0.5100
     29 H29       -11.1409   -2.9850   59.4736 H       1  ZINC000740930783    0.0600
     30 H30       -10.1182   -1.7053   58.7774 H       1  ZINC000740930783    0.0600
     31 H31       -11.0510   -1.3910   60.2605 H       1  ZINC000740930783    0.1100
     32 H32       -10.8715   -0.7158   56.3614 H       1  ZINC000740930783    0.1600
     33 H33       -10.4855    0.1773   54.6629 H       1  ZINC000740930783    0.4100
     34 H34        -9.1438   -0.6995   52.2009 H       1  ZINC000740930783    0.0900
     35 H35       -10.2434    0.6937   52.0664 H       1  ZINC000740930783    0.0800
     36 H36        -8.4164    2.7218   54.4095 H       1  ZINC000740930783    0.3800
     37 H37        -5.9673    0.5280   52.4295 H       1  ZINC000740930783    0.1300
     38 H38        -4.7620    1.5107   50.5203 H       1  ZINC000740930783    0.1300
     39 H39        -5.8629    3.1976   49.1049 H       1  ZINC000740930783    0.1400
     40 H40        -8.1707    3.9015   49.5967 H       1  ZINC000740930783    0.1400
     41 H41       -12.7256   -3.6067   53.7892 H       1  ZINC000740930783    0.1500
     42 H42       -14.7884   -1.7642   58.7049 H       1  ZINC000740930783    0.0900
     43 H43       -15.8021   -2.8405   57.7137 H       1  ZINC000740930783    0.0900
     44 H44       -15.6579   -3.3232   61.7847 H       1  ZINC000740930783    0.4000
     45 H45       -14.6138   -2.2352   61.0438 H       1  ZINC000740930783    0.4100
@<TRIPOS>BOND
     1     1     2    1
     2     1    29    1
     3     1    30    1
     4     1    31    1
     5     2     3    1
     6     3    23   ar
     7     3     4   ar
     8     4     5   ar
     9     4    32    1
    10     5     6    1
    11     5    20   ar
    12     6     7    2
    13     6     8   am
    14     8     9    1
    15     8    33    1
    16     9    10    1
    17     9    34    1
    18     9    35    1
    19    10    11    1
    20    10    12    1
    21    10    13    1
    22    12    36    1
    23    13    18   ar
    24    13    14   ar
    25    14    15   ar
    26    14    37    1
    27    15    16   ar
    28    15    38    1
    29    16    17   ar
    30    16    39    1
    31    17    18   ar
    32    17    40    1
    33    18    19    1
    34    20    21   ar
    35    20    41    1
    36    21    22    1
    37    21    23   ar
    38    23    24    1
    39    24    25    1
    40    25    26    1
    41    25    42    1
    42    25    43    1
    43    26    27   am
    44    26    28    2
    45    27    44    1
    46    27    45    1
@<TRIPOS>SUBSTRUCTURE
     1 ZINC000740930783        1 TEMP              0 ****  ****    0 ROOT


##########                                Name:    ZINC000179496896
##########                DOCK_Rotatable_Bonds:                   8
##########                         Heavy_Atoms:                  27
##########                    Molecular_Weight:             396.504
##########                DOCK_Rotatable_Bonds:                   8
##########                       Formal_Charge:          0.00999944
##########                     HBond_Acceptors:                   8
##########                        HBond_Donors:                   1
##########                         Heavy_Atoms:                  27
##########                          Grid_Score:          -32.235725
##########                     Grid_vdw_energy:          -32.378784
##########                      Grid_es_energy:            0.143058
##########           Internal_energy_repulsive:           23.293074

@<TRIPOS>MOLECULE
ZINC000179496896
 53 55 1 0 0
SMALL
USER_CHARGES


@<TRIPOS>ATOM
      1 C1         -3.5065    3.1344   50.1827 C.3     1  ZINC000179496896   -0.1500
      2 C2         -4.5511    2.4106   51.0345 C.3     1  ZINC000179496896   -0.1100
      3 C3         -4.4847    2.9290   52.4725 C.3     1  ZINC000179496896   -0.1400
      4 C4         -5.9458    2.6716   50.4622 C.3     1  ZINC000179496896    0.1200
      5 N5         -6.9092    1.7642   51.0905 N.pl3   1  ZINC000179496896   -0.3300
      6 N6         -6.6179    0.5030   51.6223 N.2     1  ZINC000179496896   -0.2700
      7 C7         -7.7149   -0.0188   52.0975 C.2     1  ZINC000179496896    0.0800
      8 C8         -8.7650    0.9022   51.8846 C.2     1  ZINC000179496896   -0.2500
      9 C9        -10.1777    0.7223   52.2660 C.2     1  ZINC000179496896    0.5900
     10 O10       -10.9784    1.6169   52.0727 O.2     1  ZINC000179496896   -0.5300
     11 N11       -10.5818   -0.4337   52.8290 N.am    1  ZINC000179496896   -0.7100
     12 C12       -11.9853   -0.6117   53.2097 C.3     1  ZINC000179496896    0.1300
     13 C13       -12.2328    0.0481   54.5677 C.3     1  ZINC000179496896    0.0700
     14 H14       -11.8986    1.0850   54.5342 H       1  ZINC000179496896    0.0900
     15 C15       -13.7276    0.0043   54.8911 C.3     1  ZINC000179496896   -0.1900
     16 N16       -11.4858   -0.6738   55.6063 N.3     1  ZINC000179496896   -0.5300
     17 C17       -12.2033   -1.8865   56.0245 C.3     1  ZINC000179496896    0.0600
     18 C18       -11.2382   -2.8027   56.7868 C.3     1  ZINC000179496896   -0.0400
     19 C19       -10.5219   -1.9682   57.8276 C.2     1  ZINC000179496896   -0.1700
     20 C20       -10.4975   -0.6206   57.8258 C.2     1  ZINC000179496896   -0.1100
     21 C21        -9.7784   -0.0744   58.8828 C.2     1  ZINC000179496896   -0.1200
     22 C22        -9.2316   -0.9506   59.7210 C.2     1  ZINC000179496896   -0.2200
     23 S23        -9.6126   -2.5849   59.1974 S.3     1  ZINC000179496896    0.1000
     24 C24       -11.2004    0.1995   56.7527 C.3     1  ZINC000179496896    0.1200
     25 C25        -8.2193    2.0050   51.2585 C.2     1  ZINC000179496896    0.0700
     26 C26        -8.9599    3.2463   50.8327 C.3     1  ZINC000179496896    0.3400
     27 F27        -8.8220    4.2321   51.8156 F       1  ZINC000179496896   -0.1500
     28 F28        -8.4301    3.7143   49.6253 F       1  ZINC000179496896   -0.2000
     29 H29        -2.5129    2.9485   50.5905 H       1  ZINC000179496896    0.0600
     30 H30        -3.5539    2.7651   49.1583 H       1  ZINC000179496896    0.0600
     31 H31        -3.7086    4.2055   50.1925 H       1  ZINC000179496896    0.0600
     32 H32        -4.3490    1.3395   51.0248 H       1  ZINC000179496896    0.0800
     33 H33        -4.6869    4.0000   52.4822 H       1  ZINC000179496896    0.0600
     34 H34        -5.2289    2.4132   53.0794 H       1  ZINC000179496896    0.0600
     35 H35        -3.4912    2.7430   52.8803 H       1  ZINC000179496896    0.0700
     36 H36        -6.2339    3.7034   50.6635 H       1  ZINC000179496896    0.1000
     37 H37        -5.9346    2.5009   49.3857 H       1  ZINC000179496896    0.1000
     38 H38        -7.8049   -0.9856   52.5704 H       1  ZINC000179496896    0.2000
     39 H39        -9.9434   -1.1477   52.9821 H       1  ZINC000179496896    0.4100
     40 H40       -12.6267   -0.1500   52.4591 H       1  ZINC000179496896    0.0700
     41 H41       -12.2115   -1.6759   53.2761 H       1  ZINC000179496896    0.0700
     42 H42       -13.9040    0.4743   55.8586 H       1  ZINC000179496896    0.0600
     43 H43       -14.2819    0.5399   54.1203 H       1  ZINC000179496896    0.0700
     44 H44       -14.0619   -1.0327   54.9246 H       1  ZINC000179496896    0.0600
     45 H45       -13.0349   -1.6124   56.6738 H       1  ZINC000179496896    0.0400
     46 H46       -12.5823   -2.4073   55.1452 H       1  ZINC000179496896    0.0900
     47 H47       -11.7968   -3.6008   57.2755 H       1  ZINC000179496896    0.0800
     48 H48       -10.5127   -3.2303   56.0948 H       1  ZINC000179496896    0.0900
     49 H49        -9.6705    0.9920   59.0147 H       1  ZINC000179496896    0.1400
     50 H50        -8.6435   -0.6968   60.5906 H       1  ZINC000179496896    0.1600
     51 H51       -10.5546    1.0188   56.4366 H       1  ZINC000179496896    0.0900
     52 H52       -12.1338    0.5984   57.1499 H       1  ZINC000179496896    0.0500
     53 H53       -10.0160    3.0116   50.6992 H       1  ZINC000179496896    0.1300
@<TRIPOS>BOND
     1     1     2    1
     2     1    29    1
     3     1    30    1
     4     1    31    1
     5     2     3    1
     6     2     4    1
     7     2    32    1
     8     3    33    1
     9     3    34    1
    10     3    35    1
    11     4     5    1
    12     4    36    1
    13     4    37    1
    14     5    25    1
    15     5     6    1
    16     6     7    2
    17     7     8    1
    18     7    38    1
    19     8     9    1
    20     8    25    2
    21     9    10    2
    22     9    11   am
    23    11    12    1
    24    11    39    1
    25    12    13    1
    26    12    40    1
    27    12    41    1
    28    13    14    1
    29    13    15    1
    30    13    16    1
    31    15    42    1
    32    15    43    1
    33    15    44    1
    34    16    24    1
    35    16    17    1
    36    17    18    1
    37    17    45    1
    38    17    46    1
    39    18    19    1
    40    18    47    1
    41    18    48    1
    42    19    23    1
    43    19    20    2
    44    20    21    1
    45    20    24    1
    46    21    22    2
    47    21    49    1
    48    22    23    1
    49    22    50    1
    50    24    51    1
    51    24    52    1
    52    25    26    1
    53    26    27    1
    54    26    28    1
    55    26    53    1
@<TRIPOS>SUBSTRUCTURE
     1 ZINC000179496896        1 TEMP              0 ****  ****    0 ROOT


##########                                Name:    ZINC000426567005
##########                DOCK_Rotatable_Bonds:                   9
##########                         Heavy_Atoms:                  31
##########                    Molecular_Weight:             417.467
##########                DOCK_Rotatable_Bonds:                   9
##########                       Formal_Charge:        -2.23517e-07
##########                     HBond_Acceptors:                   8
##########                        HBond_Donors:                   4
##########                         Heavy_Atoms:                  31
##########                          Grid_Score:          -32.222050
##########                     Grid_vdw_energy:          -31.811438
##########                      Grid_es_energy:           -0.410614
##########           Internal_energy_repulsive:           12.299821

@<TRIPOS>MOLECULE
ZINC000426567005
 54 57 1 0 0
SMALL
USER_CHARGES


@<TRIPOS>ATOM
      1 O1         -4.1285    3.2307   49.2656 O.2     1  ZINC000426567005   -0.4900
      2 C2         -4.2641    2.6067   50.2979 C.2     1  ZINC000426567005    0.5200
      3 N3         -3.2053    2.4040   51.1069 N.am    1  ZINC000426567005   -0.6000
      4 C4         -1.9485    2.9079   50.7538 C.2     1  ZINC000426567005    0.3000
      5 N5         -1.7194    3.8860   49.9087 N.2     1  ZINC000426567005   -0.3100
      6 N6         -0.3346    4.0837   49.8348 N.pl3   1  ZINC000426567005   -0.4600
      7 C7          0.2594    3.1958   50.6600 C.2     1  ZINC000426567005    0.1100
      8 C8          1.7418    3.0549   50.8924 C.3     1  ZINC000426567005   -0.0300
      9 C9          2.1322    1.5609   51.0119 C.3     1  ZINC000426567005   -0.1200
     10 C10         3.6343    1.5690   50.6344 C.3     1  ZINC000426567005   -0.1300
     11 C11         3.7340    2.6104   49.5007 C.3     1  ZINC000426567005   -0.1300
     12 C12         2.5307    3.5552   49.6647 C.3     1  ZINC000426567005   -0.1200
     13 C13        -0.7117    2.4599   51.2463 C.2     1  ZINC000426567005   -0.2600
     14 C14        -5.6046    2.0692   50.6746 C.2     1  ZINC000426567005    0.5200
     15 O15        -6.5318    2.1505   49.8955 O.2     1  ZINC000426567005   -0.4900
     16 N16        -5.7856    1.4937   51.8798 N.am    1  ZINC000426567005   -0.6400
     17 C17        -7.0364    0.9922   52.2312 C.ar    1  ZINC000426567005    0.1700
     18 C18        -7.8051    1.6504   53.1867 C.ar    1  ZINC000426567005   -0.1300
     19 C19        -9.0419    1.1573   53.5363 C.ar    1  ZINC000426567005   -0.0300
     20 C20        -9.5257   -0.0054   52.9301 C.ar    1  ZINC000426567005   -0.1500
     21 C21       -10.8514   -0.5366   53.3021 C.2     1  ZINC000426567005    0.5600
     22 O22       -10.9995   -1.7300   53.4820 O.2     1  ZINC000426567005   -0.5100
     23 N23       -11.8978    0.3011   53.4423 N.am    1  ZINC000426567005   -0.6700
     24 C24       -13.1541   -0.2022   53.7947 C.ar    1  ZINC000426567005    0.1400
     25 C25       -14.0856   -0.5012   52.8089 C.ar    1  ZINC000426567005   -0.1500
     26 C26       -15.3253   -0.9986   53.1603 C.ar    1  ZINC000426567005   -0.1000
     27 C27       -15.6393   -1.1991   54.4920 C.ar    1  ZINC000426567005   -0.1300
     28 C28       -14.7142   -0.9021   55.4760 C.ar    1  ZINC000426567005   -0.1000
     29 C29       -13.4708   -0.4098   55.1311 C.ar    1  ZINC000426567005   -0.1200
     30 C30        -8.7516   -0.6638   51.9706 C.ar    1  ZINC000426567005   -0.0600
     31 C31        -7.5176   -0.1629   51.6220 C.ar    1  ZINC000426567005   -0.1400
     32 H32        -3.3144    1.9090   51.9339 H       1  ZINC000426567005    0.4300
     33 H33         0.1183    4.7433   49.2864 H       1  ZINC000426567005    0.4400
     34 H34         2.0404    3.6020   51.7866 H       1  ZINC000426567005    0.1100
     35 H35         1.9922    1.2054   52.0328 H       1  ZINC000426567005    0.0800
     36 H36         1.5606    0.9549   50.3089 H       1  ZINC000426567005    0.0700
     37 H37         4.2404    1.8744   51.4874 H       1  ZINC000426567005    0.0700
     38 H38         3.9434    0.5863   50.2781 H       1  ZINC000426567005    0.0700
     39 H39         4.6641    3.1715   49.5899 H       1  ZINC000426567005    0.0700
     40 H40         3.6889    2.1130   48.5318 H       1  ZINC000426567005    0.0700
     41 H41         1.9015    3.5163   48.7755 H       1  ZINC000426567005    0.0600
     42 H42         2.8768    4.5749   49.8335 H       1  ZINC000426567005    0.0700
     43 H43        -0.5625    1.6641   51.9608 H       1  ZINC000426567005    0.1700
     44 H44        -5.0446    1.4289   52.5025 H       1  ZINC000426567005    0.4300
     45 H45        -7.4307    2.5489   53.6547 H       1  ZINC000426567005    0.1500
     46 H46        -9.6375    1.6680   54.2783 H       1  ZINC000426567005    0.1400
     47 H47       -11.7797    1.2531   53.2986 H       1  ZINC000426567005    0.4100
     48 H48       -13.8411   -0.3445   51.7687 H       1  ZINC000426567005    0.1300
     49 H49       -16.0502   -1.2309   52.3942 H       1  ZINC000426567005    0.1300
     50 H50       -16.6093   -1.5882   54.7642 H       1  ZINC000426567005    0.1200
     51 H51       -14.9628   -1.0592   56.5152 H       1  ZINC000426567005    0.1300
     52 H52       -12.7485   -0.1783   55.8999 H       1  ZINC000426567005    0.1300
     53 H53        -9.1225   -1.5627   51.5007 H       1  ZINC000426567005    0.1300
     54 H54        -6.9189   -0.6712   50.8806 H       1  ZINC000426567005    0.1400
@<TRIPOS>BOND
     1     1     2    2
     2     2     3   am
     3     2    14    1
     4     3     4    1
     5     3    32    1
     6     4    13    1
     7     4     5    2
     8     5     6    1
     9     6     7    1
    10     6    33    1
    11     7     8    1
    12     7    13    2
    13     8    12    1
    14     8     9    1
    15     8    34    1
    16     9    10    1
    17     9    35    1
    18     9    36    1
    19    10    11    1
    20    10    37    1
    21    10    38    1
    22    11    12    1
    23    11    39    1
    24    11    40    1
    25    12    41    1
    26    12    42    1
    27    13    43    1
    28    14    15    2
    29    14    16   am
    30    16    17    1
    31    16    44    1
    32    17    31   ar
    33    17    18   ar
    34    18    19   ar
    35    18    45    1
    36    19    20   ar
    37    19    46    1
    38    20    21    1
    39    20    30   ar
    40    21    22    2
    41    21    23   am
    42    23    24    1
    43    23    47    1
    44    24    29   ar
    45    24    25   ar
    46    25    26   ar
    47    25    48    1
    48    26    27   ar
    49    26    49    1
    50    27    28   ar
    51    27    50    1
    52    28    29   ar
    53    28    51    1
    54    29    52    1
    55    30    31   ar
    56    30    53    1
    57    31    54    1
@<TRIPOS>SUBSTRUCTURE
     1 ZINC000426567005        1 TEMP              0 ****  ****    0 ROOT


##########                                Name:    ZINC001326371752
##########                DOCK_Rotatable_Bonds:                   5
##########                         Heavy_Atoms:                  25
##########                    Molecular_Weight:             360.397
##########                DOCK_Rotatable_Bonds:                   5
##########                       Formal_Charge:           0.0199999
##########                     HBond_Acceptors:                  10
##########                        HBond_Donors:                   0
##########                         Heavy_Atoms:                  25
##########                          Grid_Score:          -32.221329
##########                     Grid_vdw_energy:          -30.492083
##########                      Grid_es_energy:           -1.729247
##########           Internal_energy_repulsive:           11.196525

@<TRIPOS>MOLECULE
ZINC001326371752
 41 44 1 0 0
SMALL
USER_CHARGES


@<TRIPOS>ATOM
      1 C1         -7.0903    1.1511   51.4515 C.3     1  ZINC001326371752    0.0300
      2 O2         -7.5129    0.3901   52.5849 O.3     1  ZINC001326371752   -0.3800
      3 C3         -8.4611    1.0628   53.4159 C.3     1  ZINC001326371752    0.0500
      4 C4         -9.8442    1.0009   52.7648 C.3     1  ZINC001326371752    0.1200
      5 N5        -10.4406   -0.3147   53.0092 N.pl3   1  ZINC001326371752   -0.2800
      6 N6        -10.5180   -1.2823   52.1583 N.2     1  ZINC001326371752   -0.0800
      7 N7        -11.1031   -2.3011   52.6921 N.2     1  ZINC001326371752   -0.2500
      8 C8        -11.4258   -1.9961   53.9437 C.2     1  ZINC001326371752   -0.0400
      9 C9        -10.9983   -0.7278   54.1614 C.2     1  ZINC001326371752    0.0000
     10 C10       -11.1517    0.0170   55.4601 C.3     1  ZINC001326371752   -0.0600
     11 C11       -12.2244   -0.6819   56.3060 C.3     1  ZINC001326371752    0.1200
     12 N12       -11.9985   -2.1343   56.2707 N.am    1  ZINC001326371752   -0.6100
     13 C13       -11.6782   -2.8101   57.3919 C.2     1  ZINC001326371752    0.6100
     14 O14       -11.4944   -4.0123   57.3462 O.2     1  ZINC001326371752   -0.5100
     15 C15       -11.5513   -2.0965   58.6678 C.2     1  ZINC001326371752   -0.3400
     16 C16       -12.6846   -1.6020   59.3238 C.2     1  ZINC001326371752    0.2400
     17 N17       -12.5330   -0.9653   60.4694 N.2     1  ZINC001326371752   -0.5100
     18 C18       -11.3387   -0.7806   61.0163 C.2     1  ZINC001326371752    0.2900
     19 S19       -10.8861    0.0056   62.4805 S.3     1  ZINC001326371752    0.2500
     20 C20        -9.1523   -0.2928   62.2804 C.2     1  ZINC001326371752   -0.2100
     21 C21        -9.0384   -0.9542   61.1411 C.2     1  ZINC001326371752    0.0500
     22 N22       -10.1904   -1.2287   60.4444 N.am    1  ZINC001326371752   -0.4600
     23 C23       -10.2842   -1.9009   59.2594 C.2     1  ZINC001326371752    0.5500
     24 O24        -9.2804   -2.3253   58.7138 O.2     1  ZINC001326371752   -0.5000
     25 C25       -12.1267   -2.8363   54.9809 C.3     1  ZINC001326371752    0.2000
     26 H26        -6.3718    0.5714   50.8722 H       1  ZINC001326371752    0.0900
     27 H27        -7.9539    1.3860   50.8292 H       1  ZINC001326371752    0.0500
     28 H28        -6.6232    2.0763   51.7888 H       1  ZINC001326371752    0.0500
     29 H29        -8.4969    0.5786   54.3918 H       1  ZINC001326371752    0.0600
     30 H30        -8.1631    2.1042   53.5377 H       1  ZINC001326371752    0.0600
     31 H31       -10.4821    1.7742   53.1927 H       1  ZINC001326371752    0.1200
     32 H32        -9.7479    1.1623   51.6911 H       1  ZINC001326371752    0.1200
     33 H33       -10.2034    0.0141   55.9974 H       1  ZINC001326371752    0.0900
     34 H34       -11.4568    1.0439   55.2587 H       1  ZINC001326371752    0.1000
     35 H35       -12.1635   -0.3289   57.3354 H       1  ZINC001326371752    0.1100
     36 H36       -13.2111   -0.4570   55.9009 H       1  ZINC001326371752    0.0800
     37 H37       -13.6679   -1.7394   58.8986 H       1  ZINC001326371752    0.1900
     38 H38        -8.3562    0.0033   62.9474 H       1  ZINC001326371752    0.2200
     39 H39        -8.0735   -1.2676   60.7710 H       1  ZINC001326371752    0.2000
     40 H40       -13.1794   -2.9399   54.7178 H       1  ZINC001326371752    0.1000
     41 H41       -11.6606   -3.8194   55.0454 H       1  ZINC001326371752    0.1000
@<TRIPOS>BOND
     1     1     2    1
     2     1    26    1
     3     1    27    1
     4     1    28    1
     5     2     3    1
     6     3     4    1
     7     3    29    1
     8     3    30    1
     9     4     5    1
    10     4    31    1
    11     4    32    1
    12     5     9    1
    13     5     6    1
    14     6     7    2
    15     7     8    1
    16     8    25    1
    17     8     9    2
    18     9    10    1
    19    10    11    1
    20    10    33    1
    21    10    34    1
    22    11    12    1
    23    11    35    1
    24    11    36    1
    25    12    13   am
    26    12    25    1
    27    13    14    2
    28    13    15    1
    29    15    23    1
    30    15    16    2
    31    16    17    1
    32    16    37    1
    33    17    18    2
    34    18    22    1
    35    18    19    1
    36    19    20    1
    37    20    21    2
    38    20    38    1
    39    21    22    1
    40    21    39    1
    41    22    23   am
    42    23    24    2
    43    25    40    1
    44    25    41    1
@<TRIPOS>SUBSTRUCTURE
     1 ZINC001326371752        1 TEMP              0 ****  ****    0 ROOT


##########                                Name:    ZINC000672622940
##########                DOCK_Rotatable_Bonds:                   7
##########                         Heavy_Atoms:                  30
##########                    Molecular_Weight:             416.523
##########                DOCK_Rotatable_Bonds:                   7
##########                       Formal_Charge:          -0.0100002
##########                     HBond_Acceptors:                   9
##########                        HBond_Donors:                   1
##########                         Heavy_Atoms:                  30
##########                          Grid_Score:          -32.214058
##########                     Grid_vdw_energy:          -31.312778
##########                      Grid_es_energy:           -0.901279
##########           Internal_energy_repulsive:           19.634741

@<TRIPOS>MOLECULE
ZINC000672622940
 62 65 1 0 0
SMALL
USER_CHARGES


@<TRIPOS>ATOM
      1 C1         -1.0673    1.7733   59.4352 C.3     1  ZINC000672622940    0.0800
      2 N2         -0.5969    2.7737   58.4739 N.am    1  ZINC000672622940   -0.6200
      3 C3         -1.3887    3.9813   58.2268 C.3     1  ZINC000672622940    0.0700
      4 C4          0.5643    2.5829   57.8167 C.2     1  ZINC000672622940    0.5200
      5 O5          1.2189    1.5825   58.0202 O.2     1  ZINC000672622940   -0.5300
      6 C6          1.0490    3.6128   56.8292 C.3     1  ZINC000672622940   -0.1000
      7 H7          0.6986    4.5996   57.1317 H       1  ZINC000672622940    0.1000
      8 C8          2.5786    3.6040   56.7924 C.3     1  ZINC000672622940   -0.1300
      9 C9          3.0707    4.6496   55.7898 C.3     1  ZINC000672622940   -0.1100
     10 C10         2.5253    4.3189   54.3991 C.3     1  ZINC000672622940   -0.1300
     11 C11         0.9957    4.3278   54.4358 C.3     1  ZINC000672622940    0.1400
     12 H12         0.6453    5.3146   54.7383 H       1  ZINC000672622940    0.1000
     13 N13         0.4734    4.0112   53.1041 N.am    1  ZINC000672622940   -0.6900
     14 C14        -0.6626    4.5922   52.6702 C.2     1  ZINC000672622940    0.5100
     15 O15        -1.2521    5.3788   53.3820 O.2     1  ZINC000672622940   -0.5100
     16 C16        -1.1964    4.2679   51.3125 C.2     1  ZINC000672622940    0.5100
     17 O17        -0.7145    4.7923   50.3299 O.2     1  ZINC000672622940   -0.5200
     18 N18        -2.2129    3.3930   51.1793 N.am    1  ZINC000672622940   -0.5800
     19 C19        -2.8106    2.7546   52.3599 C.3     1  ZINC000672622940    0.0700
     20 C20        -4.3243    2.9894   52.3342 C.3     1  ZINC000672622940   -0.1200
     21 C21        -4.8900    2.4980   50.9999 C.3     1  ZINC000672622940    0.0000
     22 C22        -6.3838    2.6961   50.9844 C.2     1  ZINC000672622940    0.2000
     23 N23        -7.0440    3.5476   50.2481 N.2     1  ZINC000672622940   -0.2800
     24 N24        -8.3024    3.4450   50.4906 N.2     1  ZINC000672622940   -0.2800
     25 C25        -8.5017    2.5214   51.3933 C.2     1  ZINC000672622940    0.1500
     26 C26        -9.5884    1.8209   52.1799 C.3     1  ZINC000672622940   -0.0400
     27 C27        -8.9028    0.5478   52.7264 C.3     1  ZINC000672622940   -0.1300
     28 C28        -7.4188    0.9746   52.7530 C.3     1  ZINC000672622940    0.1000
     29 N29        -7.2926    2.0186   51.7288 N.pl3   1  ZINC000672622940   -0.4900
     30 C30        -4.2586    3.2908   49.8531 C.3     1  ZINC000672622940   -0.1200
     31 C31        -2.7483    3.0640   49.8513 C.3     1  ZINC000672622940    0.1100
     32 C32         0.5035    3.2823   55.4385 C.3     1  ZINC000672622940   -0.1100
     33 H33        -1.6893    1.0402   58.9217 H       1  ZINC000672622940    0.0600
     34 H34        -0.2111    1.2715   59.8858 H       1  ZINC000672622940    0.0800
     35 H35        -1.6517    2.2640   60.2136 H       1  ZINC000672622940    0.0700
     36 H36        -1.0797    4.7659   58.9176 H       1  ZINC000672622940    0.0600
     37 H37        -1.2299    4.3164   57.2019 H       1  ZINC000672622940    0.0800
     38 H38        -2.4453    3.7601   58.3773 H       1  ZINC000672622940    0.0700
     39 H39         2.9671    3.8395   57.7832 H       1  ZINC000672622940    0.0800
     40 H40         2.9290    2.6171   56.4898 H       1  ZINC000672622940    0.0700
     41 H41         2.7203    5.6363   56.0923 H       1  ZINC000672622940    0.0700
     42 H42         4.1604    4.6431   55.7636 H       1  ZINC000672622940    0.0700
     43 H43         2.8759    5.0638   53.6847 H       1  ZINC000672622940    0.0700
     44 H44         2.8757    3.3321   54.0965 H       1  ZINC000672622940    0.0700
     45 H45         0.9452    3.3835   52.5348 H       1  ZINC000672622940    0.4100
     46 H46        -2.6065    1.6841   52.3392 H       1  ZINC000672622940    0.0700
     47 H47        -2.3884    3.1917   53.2648 H       1  ZINC000672622940    0.1400
     48 H48        -4.7915    2.4405   53.1517 H       1  ZINC000672622940    0.0800
     49 H49        -4.5292    4.0541   52.4462 H       1  ZINC000672622940    0.0800
     50 H50        -4.6629    1.4390   50.8770 H       1  ZINC000672622940    0.0900
     51 H51        -9.9318    2.4511   53.0004 H       1  ZINC000672622940    0.1000
     52 H52       -10.4205    1.5558   51.5276 H       1  ZINC000672622940    0.1000
     53 H53        -9.2591    0.3130   53.7294 H       1  ZINC000672622940    0.1100
     54 H54        -9.0538   -0.2960   52.0530 H       1  ZINC000672622940    0.0900
     55 H55        -7.1581    1.3703   53.7347 H       1  ZINC000672622940    0.1000
     56 H56        -6.7788    0.1279   52.5050 H       1  ZINC000672622940    0.1000
     57 H57        -4.6792    2.9564   48.9047 H       1  ZINC000672622940    0.0800
     58 H58        -4.4642    4.3526   49.9886 H       1  ZINC000672622940    0.0800
     59 H59        -2.2838    3.7029   49.1000 H       1  ZINC000672622940    0.1000
     60 H60        -2.5360    2.0188   49.6267 H       1  ZINC000672622940    0.0800
     61 H61         0.8540    2.2954   55.1359 H       1  ZINC000672622940    0.0800
     62 H62        -0.5861    3.2886   55.4646 H       1  ZINC000672622940    0.0800
@<TRIPOS>BOND
     1     1     2    1
     2     1    33    1
     3     1    34    1
     4     1    35    1
     5     2     3    1
     6     2     4   am
     7     3    36    1
     8     3    37    1
     9     3    38    1
    10     4     5    2
    11     4     6    1
    12     6     7    1
    13     6    32    1
    14     6     8    1
    15     8     9    1
    16     8    39    1
    17     8    40    1
    18     9    10    1
    19     9    41    1
    20     9    42    1
    21    10    11    1
    22    10    43    1
    23    10    44    1
    24    11    12    1
    25    11    13    1
    26    11    32    1
    27    13    14   am
    28    13    45    1
    29    14    15    2
    30    14    16    1
    31    16    17    2
    32    16    18   am
    33    18    31    1
    34    18    19    1
    35    19    20    1
    36    19    46    1
    37    19    47    1
    38    20    21    1
    39    20    48    1
    40    20    49    1
    41    21    22    1
    42    21    30    1
    43    21    50    1
    44    22    29    1
    45    22    23    2
    46    23    24    1
    47    24    25    2
    48    25    29    1
    49    25    26    1
    50    26    27    1
    51    26    51    1
    52    26    52    1
    53    27    28    1
    54    27    53    1
    55    27    54    1
    56    28    29    1
    57    28    55    1
    58    28    56    1
    59    30    31    1
    60    30    57    1
    61    30    58    1
    62    31    59    1
    63    31    60    1
    64    32    61    1
    65    32    62    1
@<TRIPOS>SUBSTRUCTURE
     1 ZINC000672622940        1 TEMP              0 ****  ****    0 ROOT


##########                                Name:    ZINC000655982608
##########                DOCK_Rotatable_Bonds:                   5
##########                         Heavy_Atoms:                  29
##########                    Molecular_Weight:             388.469
##########                DOCK_Rotatable_Bonds:                   5
##########                       Formal_Charge:          -0.0200006
##########                     HBond_Acceptors:                   6
##########                        HBond_Donors:                   0
##########                         Heavy_Atoms:                  29
##########                          Grid_Score:          -32.209251
##########                     Grid_vdw_energy:          -32.070583
##########                      Grid_es_energy:           -0.138666
##########           Internal_energy_repulsive:           24.398790

@<TRIPOS>MOLECULE
ZINC000655982608
 53 57 1 0 0
SMALL
USER_CHARGES


@<TRIPOS>ATOM
      1 C1        -13.3511   -1.8275   54.8360 C.3     1  ZINC000655982608   -0.1900
      2 C2        -11.9208   -1.6369   54.3271 C.3     1  ZINC000655982608    0.0800
      3 H3        -11.4783   -2.6100   54.1139 H       1  ZINC000655982608    0.1000
      4 C4        -11.9420   -0.7952   53.0496 C.3     1  ZINC000655982608   -0.0300
      5 C5        -10.5458   -0.3224   52.7364 C.2     1  ZINC000655982608    0.2000
      6 N6        -10.1458    0.9227   52.6415 N.2     1  ZINC000655982608   -0.4800
      7 C7         -8.8344    0.8605   52.3496 C.2     1  ZINC000655982608    0.1700
      8 C8         -7.9110    2.0326   52.1389 C.3     1  ZINC000655982608   -0.0100
      9 H9         -8.4009    2.8129   51.5565 H       1  ZINC000655982608    0.1300
     10 C10        -7.4033    2.5870   53.4902 C.3     1  ZINC000655982608   -0.1400
     11 C11        -5.9698    2.9833   53.2137 C.2     1  ZINC000655982608    0.5200
     12 O12        -5.3015    3.7096   53.9186 O.2     1  ZINC000655982608   -0.5000
     13 N13        -5.5443    2.4128   52.0733 N.am    1  ZINC000655982608   -0.5600
     14 C14        -4.2651    2.5862   51.5333 C.ar    1  ZINC000655982608    0.1600
     15 C15        -3.1434    2.4267   52.3364 C.ar    1  ZINC000655982608   -0.1600
     16 C16        -1.8821    2.5986   51.8005 C.ar    1  ZINC000655982608   -0.0900
     17 C17        -1.7356    2.9297   50.4659 C.ar    1  ZINC000655982608   -0.1400
     18 C18        -2.8505    3.0896   49.6637 C.ar    1  ZINC000655982608   -0.0900
     19 C19        -4.1143    2.9126   50.1920 C.ar    1  ZINC000655982608   -0.1600
     20 C20        -6.5942    1.5851   51.4665 C.3     1  ZINC000655982608    0.1100
     21 N21        -8.5098   -0.3960   52.2831 N.2     1  ZINC000655982608   -0.3700
     22 O22        -9.4774   -1.0921   52.5079 O.3     1  ZINC000655982608    0.0900
     23 N23       -11.1237   -0.9507   55.3525 N.3     1  ZINC000655982608   -0.4700
     24 C24       -11.5720    0.4483   55.5242 C.3     1  ZINC000655982608    0.0300
     25 C25       -11.2741    0.7181   57.0170 C.3     1  ZINC000655982608   -0.0800
     26 C26       -11.3206   -0.6692   57.6258 C.ar    1  ZINC000655982608   -0.1400
     27 C27       -11.4234   -1.0910   58.9344 C.ar    1  ZINC000655982608   -0.0800
     28 C28       -11.4503   -2.4429   59.2270 C.ar    1  ZINC000655982608   -0.1400
     29 C29       -11.3745   -3.3707   58.2048 C.ar    1  ZINC000655982608   -0.0900
     30 C30       -11.2693   -2.9539   56.8939 C.ar    1  ZINC000655982608   -0.1400
     31 C31       -11.2383   -1.5940   56.5911 C.ar    1  ZINC000655982608    0.1000
     32 H32       -13.9123   -2.4330   54.1243 H       1  ZINC000655982608    0.0700
     33 H33       -13.3288   -2.3304   55.8027 H       1  ZINC000655982608    0.0700
     34 H34       -13.8312   -0.8548   54.9434 H       1  ZINC000655982608    0.0700
     35 H35       -12.3152   -1.3993   52.2226 H       1  ZINC000655982608    0.1200
     36 H36       -12.5937    0.0666   53.1932 H       1  ZINC000655982608    0.1100
     37 H37        -7.9885    3.4566   53.7898 H       1  ZINC000655982608    0.1200
     38 H38        -7.4443    1.8152   54.2588 H       1  ZINC000655982608    0.1200
     39 H39        -3.2572    2.1690   53.3790 H       1  ZINC000655982608    0.1200
     40 H40        -1.0094    2.4747   52.4245 H       1  ZINC000655982608    0.1300
     41 H41        -0.7483    3.0638   50.0494 H       1  ZINC000655982608    0.1200
     42 H42        -2.7328    3.3487   48.6219 H       1  ZINC000655982608    0.1300
     43 H43        -4.9847    3.0377   49.5649 H       1  ZINC000655982608    0.1500
     44 H44        -6.4072    0.5306   51.6690 H       1  ZINC000655982608    0.0900
     45 H45        -6.6393    1.7614   50.3918 H       1  ZINC000655982608    0.1000
     46 H46       -10.9960    1.1198   54.8875 H       1  ZINC000655982608    0.1000
     47 H47       -12.6387    0.5403   55.3201 H       1  ZINC000655982608    0.0700
     48 H48       -10.2854    1.1605   57.1396 H       1  ZINC000655982608    0.0900
     49 H49       -12.0410    1.3574   57.4543 H       1  ZINC000655982608    0.0800
     50 H50       -11.4825   -0.3652   59.7319 H       1  ZINC000655982608    0.1200
     51 H51       -11.5302   -2.7729   60.2523 H       1  ZINC000655982608    0.1200
     52 H52       -11.3973   -4.4259   58.4335 H       1  ZINC000655982608    0.1300
     53 H53       -11.2100   -3.6837   56.1000 H       1  ZINC000655982608    0.1200
@<TRIPOS>BOND
     1     1     2    1
     2     1    32    1
     3     1    33    1
     4     1    34    1
     5     2     3    1
     6     2     4    1
     7     2    23    1
     8     4     5    1
     9     4    35    1
    10     4    36    1
    11     5    22    1
    12     5     6    2
    13     6     7    1
    14     7     8    1
    15     7    21    2
    16     8     9    1
    17     8    20    1
    18     8    10    1
    19    10    11    1
    20    10    37    1
    21    10    38    1
    22    11    12    2
    23    11    13   am
    24    13    14    1
    25    13    20    1
    26    14    19   ar
    27    14    15   ar
    28    15    16   ar
    29    15    39    1
    30    16    17   ar
    31    16    40    1
    32    17    18   ar
    33    17    41    1
    34    18    19   ar
    35    18    42    1
    36    19    43    1
    37    20    44    1
    38    20    45    1
    39    21    22    1
    40    23    31    1
    41    23    24    1
    42    24    25    1
    43    24    46    1
    44    24    47    1
    45    25    26    1
    46    25    48    1
    47    25    49    1
    48    26    31   ar
    49    26    27   ar
    50    27    28   ar
    51    27    50    1
    52    28    29   ar
    53    28    51    1
    54    29    30   ar
    55    29    52    1
    56    30    31   ar
    57    30    53    1
@<TRIPOS>SUBSTRUCTURE
     1 ZINC000655982608        1 TEMP              0 ****  ****    0 ROOT


##########                                Name:    ZINC001127302705
##########                DOCK_Rotatable_Bonds:                   9
##########                         Heavy_Atoms:                  28
##########                    Molecular_Weight:             398.892
##########                DOCK_Rotatable_Bonds:                   9
##########                       Formal_Charge:          -0.0200002
##########                     HBond_Acceptors:                   7
##########                        HBond_Donors:                   1
##########                         Heavy_Atoms:                  28
##########                          Grid_Score:          -32.201797
##########                     Grid_vdw_energy:          -31.027100
##########                      Grid_es_energy:           -1.174699
##########           Internal_energy_repulsive:           25.678349

@<TRIPOS>MOLECULE
ZINC001127302705
 51 53 1 0 0
SMALL
USER_CHARGES


@<TRIPOS>ATOM
      1 C1        -10.5042    1.3989   61.9198 C.3     1  ZINC001127302705   -0.1500
      2 C2        -10.0765   -0.0555   61.7126 C.3     1  ZINC001127302705   -0.1400
      3 C3        -10.1840   -0.4123   60.2288 C.3     1  ZINC001127302705    0.1800
      4 C4         -9.5155   -1.7658   59.9800 C.3     1  ZINC001127302705   -0.1600
      5 C5        -11.6586   -0.4905   59.8285 C.3     1  ZINC001127302705    0.0700
      6 O6        -11.9403   -1.7876   59.2993 O.3     1  ZINC001127302705   -0.2800
      7 C7        -13.2044   -2.2556   59.4559 C.ar    1  ZINC001127302705    0.3400
      8 N8        -13.7446   -2.2918   60.6622 N.ar    1  ZINC001127302705   -0.5300
      9 C9        -14.9708   -2.7388   60.8589 C.ar    1  ZINC001127302705    0.1400
     10 C10       -15.7385   -3.1883   59.8035 C.ar    1  ZINC001127302705   -0.2000
     11 C11       -15.2085   -3.1671   58.5205 C.ar    1  ZINC001127302705   -0.0300
     12 C12       -13.9215   -2.6871   58.3457 C.ar    1  ZINC001127302705   -0.1100
     13 Cl13      -13.2082   -2.6374   56.7638 Cl      1  ZINC001127302705   -0.0400
     14 N14        -9.5150    0.6171   59.4292 N.am    1  ZINC001127302705   -0.7100
     15 C15        -9.5823    0.5749   58.0837 C.2     1  ZINC001127302705    0.6200
     16 O16       -10.1994   -0.3166   57.5336 O.2     1  ZINC001127302705   -0.5200
     17 C17        -8.9064    1.6116   57.2776 C.2     1  ZINC001127302705   -0.0200
     18 N18        -8.1727    2.6065   57.7351 N.2     1  ZINC001127302705   -0.2500
     19 N19        -7.7375    3.3189   56.7586 N.pl3   1  ZINC001127302705   -0.2800
     20 C20        -6.8902    4.5056   56.8997 C.3     1  ZINC001127302705    0.1600
     21 C21        -5.4566    4.0800   57.0857 C.ar    1  ZINC001127302705   -0.1200
     22 C22        -4.5808    4.8883   57.7859 C.ar    1  ZINC001127302705   -0.1000
     23 C23        -3.2658    4.4979   57.9565 C.ar    1  ZINC001127302705   -0.1200
     24 C24        -2.8266    3.2988   57.4272 C.ar    1  ZINC001127302705   -0.1100
     25 C25        -3.7026    2.4899   56.7277 C.ar    1  ZINC001127302705   -0.1200
     26 C26        -5.0188    2.8784   56.5608 C.ar    1  ZINC001127302705   -0.0800
     27 C27        -8.1732    2.8162   55.5835 C.2     1  ZINC001127302705   -0.0200
     28 C28        -8.9181    1.7221   55.8669 C.2     1  ZINC001127302705   -0.1800
     29 H29       -11.5353    1.5249   61.5895 H       1  ZINC001127302705    0.0500
     30 H30       -10.4276    1.6530   62.9770 H       1  ZINC001127302705    0.0600
     31 H31        -9.8544    2.0548   61.3404 H       1  ZINC001127302705    0.0500
     32 H32        -9.0453   -0.1815   62.0428 H       1  ZINC001127302705    0.0900
     33 H33       -10.7263   -0.7114   62.2920 H       1  ZINC001127302705    0.0800
     34 H34       -10.0133   -2.5317   60.5748 H       1  ZINC001127302705    0.0700
     35 H35        -9.5921   -2.0200   58.9228 H       1  ZINC001127302705    0.0500
     36 H36        -8.4649   -1.7101   60.2650 H       1  ZINC001127302705    0.0800
     37 H37       -12.2828   -0.3118   60.7041 H       1  ZINC001127302705    0.0800
     38 H38       -11.8701    0.2645   59.0714 H       1  ZINC001127302705    0.0700
     39 H39       -15.3787   -2.7533   61.8589 H       1  ZINC001127302705    0.1700
     40 H40       -16.7406   -3.5530   59.9740 H       1  ZINC001127302705    0.1500
     41 H41       -15.7882   -3.5131   57.6775 H       1  ZINC001127302705    0.1500
     42 H42        -9.0237    1.3289   59.8681 H       1  ZINC001127302705    0.4100
     43 H43        -6.9734    5.1202   56.0034 H       1  ZINC001127302705    0.1000
     44 H44        -7.2135    5.0818   57.7666 H       1  ZINC001127302705    0.1100
     45 H45        -4.9239    5.8252   58.1995 H       1  ZINC001127302705    0.1200
     46 H46        -2.5814    5.1299   58.5031 H       1  ZINC001127302705    0.1300
     47 H47        -1.7990    2.9940   57.5598 H       1  ZINC001127302705    0.1200
     48 H48        -3.3594    1.5533   56.3138 H       1  ZINC001127302705    0.1300
     49 H49        -5.7031    2.2465   56.0143 H       1  ZINC001127302705    0.1300
     50 H50        -7.9625    3.2107   54.6004 H       1  ZINC001127302705    0.1800
     51 H51        -9.4215    1.0742   55.1647 H       1  ZINC001127302705    0.1600
@<TRIPOS>BOND
     1     1     2    1
     2     1    29    1
     3     1    30    1
     4     1    31    1
     5     2     3    1
     6     2    32    1
     7     2    33    1
     8     3     4    1
     9     3     5    1
    10     3    14    1
    11     4    34    1
    12     4    35    1
    13     4    36    1
    14     5     6    1
    15     5    37    1
    16     5    38    1
    17     6     7    1
    18     7    12   ar
    19     7     8   ar
    20     8     9   ar
    21     9    10   ar
    22     9    39    1
    23    10    11   ar
    24    10    40    1
    25    11    12   ar
    26    11    41    1
    27    12    13    1
    28    14    15   am
    29    14    42    1
    30    15    16    2
    31    15    17    1
    32    17    28    1
    33    17    18    2
    34    18    19    1
    35    19    20    1
    36    19    27    1
    37    20    21    1
    38    20    43    1
    39    20    44    1
    40    21    26   ar
    41    21    22   ar
    42    22    23   ar
    43    22    45    1
    44    23    24   ar
    45    23    46    1
    46    24    25   ar
    47    24    47    1
    48    25    26   ar
    49    25    48    1
    50    26    49    1
    51    27    28    2
    52    27    50    1
    53    28    51    1
@<TRIPOS>SUBSTRUCTURE
     1 ZINC001127302705        1 TEMP              0 ****  ****    0 ROOT


##########                                Name:    ZINC000914736341
##########                DOCK_Rotatable_Bonds:                   7
##########                         Heavy_Atoms:                  27
##########                    Molecular_Weight:             384.905
##########                DOCK_Rotatable_Bonds:                   7
##########                       Formal_Charge:                0.02
##########                     HBond_Acceptors:                   5
##########                        HBond_Donors:                   1
##########                         Heavy_Atoms:                  27
##########                          Grid_Score:          -32.173618
##########                     Grid_vdw_energy:          -31.450531
##########                      Grid_es_energy:           -0.723088
##########           Internal_energy_repulsive:           25.407919

@<TRIPOS>MOLECULE
ZINC000914736341
 52 54 1 0 0
SMALL
USER_CHARGES


@<TRIPOS>ATOM
      1 C1        -13.2159   -0.5729   55.1981 C.3     1  ZINC000914736341   -0.1400
      2 C2        -12.3581   -1.8320   55.3397 C.3     1  ZINC000914736341   -0.0300
      3 C3        -13.2623   -3.0660   55.3567 C.3     1  ZINC000914736341   -0.1400
      4 C4        -11.3903   -1.9251   54.1583 C.3     1  ZINC000914736341    0.1300
      5 N5        -10.4786   -0.7786   54.1822 N.am    1  ZINC000914736341   -0.7200
      6 C6         -9.8964   -0.3568   53.0423 C.2     1  ZINC000914736341    0.5300
      7 O7        -10.1260   -0.9271   51.9969 O.2     1  ZINC000914736341   -0.5300
      8 C8         -8.9599    0.8237   53.0666 C.3     1  ZINC000914736341   -0.1200
      9 H9         -8.4613    0.9037   54.0326 H       1  ZINC000914736341    0.1200
     10 C10        -9.7089    2.1315   52.7205 C.3     1  ZINC000914736341   -0.1400
     11 C11        -8.7138    2.9232   51.9010 C.2     1  ZINC000914736341    0.5200
     12 O12        -8.7946    4.1107   51.6679 O.2     1  ZINC000914736341   -0.5200
     13 N13        -7.7270    2.1191   51.4692 N.am    1  ZINC000914736341   -0.6100
     14 C14        -6.5935    2.5656   50.6554 C.3     1  ZINC000914736341    0.1600
     15 C15        -5.3871    2.7590   51.5376 C.ar    1  ZINC000914736341   -0.1000
     16 C16        -5.5499    2.9896   52.8904 C.ar    1  ZINC000914736341   -0.0800
     17 C17        -4.4432    3.1671   53.6998 C.ar    1  ZINC000914736341   -0.1100
     18 C18        -3.1734    3.1146   53.1565 C.ar    1  ZINC000914736341   -0.1000
     19 C19        -3.0092    2.8841   51.8035 C.ar    1  ZINC000914736341   -0.1100
     20 C20        -4.1159    2.7003   50.9942 C.ar    1  ZINC000914736341   -0.0300
     21 Cl21       -3.9105    2.4107   49.2948 Cl      1  ZINC000914736341   -0.0600
     22 C22        -7.9301    0.7362   51.9185 C.3     1  ZINC000914736341    0.1000
     23 C23       -11.5756   -1.7647   56.6259 C.ar    1  ZINC000914736341   -0.0700
     24 C24       -11.4760   -0.5692   57.3125 C.ar    1  ZINC000914736341   -0.1200
     25 C25       -10.7583   -0.5075   58.4924 C.ar    1  ZINC000914736341   -0.1200
     26 C26       -10.1404   -1.6415   58.9856 C.ar    1  ZINC000914736341   -0.1200
     27 C27       -10.2409   -2.8372   58.2994 C.ar    1  ZINC000914736341   -0.1200
     28 C28       -10.9622   -2.8999   57.1218 C.ar    1  ZINC000914736341   -0.1100
     29 H29       -13.9054   -0.5066   56.0397 H       1  ZINC000914736341    0.0600
     30 H30       -12.5717    0.3061   55.1859 H       1  ZINC000914736341    0.0600
     31 H31       -13.7818   -0.6216   54.2677 H       1  ZINC000914736341    0.0600
     32 H32       -13.8282   -3.1146   54.4264 H       1  ZINC000914736341    0.0600
     33 H33       -12.6512   -3.9629   55.4575 H       1  ZINC000914736341    0.0600
     34 H34       -13.9519   -2.9996   56.1983 H       1  ZINC000914736341    0.0600
     35 H35       -10.8154   -2.8482   54.2314 H       1  ZINC000914736341    0.0700
     36 H36       -11.9543   -1.9214   53.2255 H       1  ZINC000914736341    0.0700
     37 H37       -10.2940   -0.3231   55.0185 H       1  ZINC000914736341    0.4000
     38 H38       -10.6013    1.9159   52.1329 H       1  ZINC000914736341    0.1100
     39 H39        -9.9711    2.6729   53.6295 H       1  ZINC000914736341    0.1100
     40 H40        -6.3725    1.8143   49.8971 H       1  ZINC000914736341    0.1000
     41 H41        -6.8438    3.5089   50.1702 H       1  ZINC000914736341    0.1000
     42 H42        -6.5419    3.0314   53.3153 H       1  ZINC000914736341    0.1400
     43 H43        -4.5709    3.3471   54.7570 H       1  ZINC000914736341    0.1300
     44 H44        -2.3092    3.2541   53.7891 H       1  ZINC000914736341    0.1300
     45 H45        -2.0169    2.8431   51.3790 H       1  ZINC000914736341    0.1400
     46 H46        -6.9924    0.3164   52.2826 H       1  ZINC000914736341    0.1000
     47 H47        -8.3250    0.1291   51.1039 H       1  ZINC000914736341    0.0900
     48 H48       -11.9587    0.3167   56.9272 H       1  ZINC000914736341    0.1300
     49 H49       -10.6799    0.4267   59.0285 H       1  ZINC000914736341    0.1200
     50 H50        -9.5791   -1.5931   59.9071 H       1  ZINC000914736341    0.1200
     51 H51        -9.7579   -3.7231   58.6846 H       1  ZINC000914736341    0.1200
     52 H52       -11.0406   -3.8341   56.5857 H       1  ZINC000914736341    0.1200
@<TRIPOS>BOND
     1     1     2    1
     2     1    29    1
     3     1    30    1
     4     1    31    1
     5     2     3    1
     6     2     4    1
     7     2    23    1
     8     3    32    1
     9     3    33    1
    10     3    34    1
    11     4     5    1
    12     4    35    1
    13     4    36    1
    14     5     6   am
    15     5    37    1
    16     6     7    2
    17     6     8    1
    18     8     9    1
    19     8    22    1
    20     8    10    1
    21    10    11    1
    22    10    38    1
    23    10    39    1
    24    11    12    2
    25    11    13   am
    26    13    14    1
    27    13    22    1
    28    14    15    1
    29    14    40    1
    30    14    41    1
    31    15    20   ar
    32    15    16   ar
    33    16    17   ar
    34    16    42    1
    35    17    18   ar
    36    17    43    1
    37    18    19   ar
    38    18    44    1
    39    19    20   ar
    40    19    45    1
    41    20    21    1
    42    22    46    1
    43    22    47    1
    44    23    28   ar
    45    23    24   ar
    46    24    25   ar
    47    24    48    1
    48    25    26   ar
    49    25    49    1
    50    26    27   ar
    51    26    50    1
    52    27    28   ar
    53    27    51    1
    54    28    52    1
@<TRIPOS>SUBSTRUCTURE
     1 ZINC000914736341        1 TEMP              0 ****  ****    0 ROOT


##########                                Name:    ZINC000543625960
##########                DOCK_Rotatable_Bonds:                   8
##########                         Heavy_Atoms:                  29
##########                    Molecular_Weight:             416.544
##########                DOCK_Rotatable_Bonds:                   8
##########                       Formal_Charge:           -0.010001
##########                     HBond_Acceptors:                   8
##########                        HBond_Donors:                   2
##########                         Heavy_Atoms:                  29
##########                          Grid_Score:          -32.169182
##########                     Grid_vdw_energy:          -30.888657
##########                      Grid_es_energy:           -1.280524
##########           Internal_energy_repulsive:           18.499441

@<TRIPOS>MOLECULE
ZINC000543625960
 57 59 1 0 0
SMALL
USER_CHARGES


@<TRIPOS>ATOM
      1 C1         -3.5005    2.7455   50.0854 C.3     1  ZINC000543625960   -0.1500
      2 C2         -4.8514    3.4557   50.1928 C.3     1  ZINC000543625960   -0.1300
      3 C3         -5.4364    3.2305   51.5885 C.3     1  ZINC000543625960    0.1500
      4 H4         -6.3988    3.7365   51.6651 H       1  ZINC000543625960    0.0800
      5 C5         -4.4787    3.7944   52.6401 C.3     1  ZINC000543625960   -0.1700
      6 N6         -5.6201    1.7948   51.8152 N.am    1  ZINC000543625960   -1.1100
      7 S7         -7.0490    1.0674   51.4015 S.o2    1  ZINC000543625960    2.7000
      8 O8         -7.2856    1.3936   50.0388 O.2     1  ZINC000543625960   -0.9600
      9 O9         -6.9719   -0.2689   51.8787 O.2     1  ZINC000543625960   -0.9500
     10 C10        -8.3230    1.8546   52.3300 C.ar    1  ZINC000543625960   -0.6600
     11 C11        -9.2182    2.6974   51.6976 C.ar    1  ZINC000543625960   -0.0400
     12 C12       -10.2195    3.3173   52.4228 C.ar    1  ZINC000543625960   -0.1200
     13 C13       -10.3281    3.0960   53.7815 C.ar    1  ZINC000543625960   -0.0600
     14 C14        -9.4307    2.2495   54.4197 C.ar    1  ZINC000543625960    0.1500
     15 N15        -9.5381    2.0231   55.7965 N.am    1  ZINC000543625960   -0.6800
     16 C16       -10.1751    0.9260   56.2514 C.2     1  ZINC000543625960    0.7200
     17 O17       -10.6565    0.1329   55.4655 O.2     1  ZINC000543625960   -0.5600
     18 N18       -10.2785    0.7079   57.5774 N.am    1  ZINC000543625960   -0.6300
     19 C19       -10.9454   -0.4454   58.2088 C.3     1  ZINC000543625960    0.0900
     20 C20       -10.2823   -0.5721   59.6031 C.3     1  ZINC000543625960   -0.1000
     21 H21       -10.9482   -1.0691   60.3087 H       1  ZINC000543625960    0.1000
     22 C22        -8.9425   -1.3048   59.5087 C.3     1  ZINC000543625960   -0.1500
     23 C23       -10.0768    0.9171   59.9869 C.3     1  ZINC000543625960   -0.1200
     24 C24        -9.7397    1.5773   58.6334 C.3     1  ZINC000543625960    0.2000
     25 H25        -8.6591    1.6727   58.5265 H       1  ZINC000543625960    0.0900
     26 C26       -10.3845    2.9369   58.5516 C.ar    1  ZINC000543625960   -0.1400
     27 C27        -9.6142    4.0858   58.6423 C.ar    1  ZINC000543625960   -0.0600
     28 C28       -10.2505    5.3152   58.5613 C.ar    1  ZINC000543625960   -0.1700
     29 C29       -11.6216    5.3541   58.3940 C.ar    1  ZINC000543625960    0.1000
     30 N30       -12.3230    4.2402   58.3116 N.ar    1  ZINC000543625960   -0.4800
     31 C31       -11.7510    3.0541   58.3793 C.ar    1  ZINC000543625960    0.1200
     32 C32        -8.4298    1.6247   53.6879 C.ar    1  ZINC000543625960   -0.0500
     33 H33        -3.0838    2.9059   49.0911 H       1  ZINC000543625960    0.0600
     34 H34        -2.8182    3.1472   50.8345 H       1  ZINC000543625960    0.0600
     35 H35        -3.6372    1.6773   50.2540 H       1  ZINC000543625960    0.0500
     36 H36        -4.7147    4.5239   50.0242 H       1  ZINC000543625960    0.0700
     37 H37        -5.5337    3.0540   49.4437 H       1  ZINC000543625960    0.0800
     38 H38        -4.3421    4.8625   52.4714 H       1  ZINC000543625960    0.0700
     39 H39        -4.8955    3.6339   53.6344 H       1  ZINC000543625960    0.0700
     40 H40        -3.5163    3.2884   52.5635 H       1  ZINC000543625960    0.0600
     41 H41        -4.9047    1.2704   52.2078 H       1  ZINC000543625960    0.4200
     42 H42        -9.1351    2.8725   50.6351 H       1  ZINC000543625960    0.1400
     43 H43       -10.9170    3.9753   51.9260 H       1  ZINC000543625960    0.1400
     44 H44       -11.1098    3.5807   54.3474 H       1  ZINC000543625960    0.1400
     45 H45        -9.1539    2.6557   56.4235 H       1  ZINC000543625960    0.4100
     46 H46       -12.0137   -0.2558   58.3127 H       1  ZINC000543625960    0.0700
     47 H47       -10.7746   -1.3493   57.6241 H       1  ZINC000543625960    0.0800
     48 H48        -8.2804   -0.7655   58.8314 H       1  ZINC000543625960    0.0600
     49 H49        -8.4866   -1.3572   60.4975 H       1  ZINC000543625960    0.0600
     50 H50        -9.1061   -2.3138   59.1302 H       1  ZINC000543625960    0.0600
     51 H51       -10.9907    1.3366   60.4077 H       1  ZINC000543625960    0.0800
     52 H52        -9.2454    1.0247   60.6835 H       1  ZINC000543625960    0.0900
     53 H53        -8.5439    4.0249   58.7733 H       1  ZINC000543625960    0.1300
     54 H54        -9.6817    6.2309   58.6285 H       1  ZINC000543625960    0.1400
     55 H55       -12.1247    6.3076   58.3304 H       1  ZINC000543625960    0.1600
     56 H56       -12.3584    2.1638   58.3078 H       1  ZINC000543625960    0.1400
     57 H57        -7.7304    0.9659   54.1812 H       1  ZINC000543625960    0.1400
@<TRIPOS>BOND
     1     1     2    1
     2     1    33    1
     3     1    34    1
     4     1    35    1
     5     2     3    1
     6     2    36    1
     7     2    37    1
     8     3     4    1
     9     3     5    1
    10     3     6    1
    11     5    38    1
    12     5    39    1
    13     5    40    1
    14     6     7   am
    15     6    41    1
    16     7     8    2
    17     7     9    2
    18     7    10    1
    19    10    32   ar
    20    10    11   ar
    21    11    12   ar
    22    11    42    1
    23    12    13   ar
    24    12    43    1
    25    13    14   ar
    26    13    44    1
    27    14    15    1
    28    14    32   ar
    29    15    16   am
    30    15    45    1
    31    16    17    2
    32    16    18   am
    33    18    24    1
    34    18    19    1
    35    19    20    1
    36    19    46    1
    37    19    47    1
    38    20    21    1
    39    20    22    1
    40    20    23    1
    41    22    48    1
    42    22    49    1
    43    22    50    1
    44    23    24    1
    45    23    51    1
    46    23    52    1
    47    24    25    1
    48    24    26    1
    49    26    31   ar
    50    26    27   ar
    51    27    28   ar
    52    27    53    1
    53    28    29   ar
    54    28    54    1
    55    29    30   ar
    56    29    55    1
    57    30    31   ar
    58    31    56    1
    59    32    57    1
@<TRIPOS>SUBSTRUCTURE
     1 ZINC000543625960        1 TEMP              0 ****  ****    0 ROOT


##########                                Name:    ZINC000462219577
##########                DOCK_Rotatable_Bonds:                   8
##########                         Heavy_Atoms:                  31
##########                    Molecular_Weight:             418.539
##########                DOCK_Rotatable_Bonds:                   8
##########                       Formal_Charge:         -0.00999914
##########                     HBond_Acceptors:                   6
##########                        HBond_Donors:                   2
##########                         Heavy_Atoms:                  31
##########                          Grid_Score:          -32.149902
##########                     Grid_vdw_energy:          -31.338474
##########                      Grid_es_energy:           -0.811430
##########           Internal_energy_repulsive:           18.317823

@<TRIPOS>MOLECULE
ZINC000462219577
 61 64 1 0 0
SMALL
USER_CHARGES


@<TRIPOS>ATOM
      1 C1         -9.1998    4.6905   50.0196 C.3     1  ZINC000462219577   -0.0700
      2 C2         -7.9877    4.2486   50.7985 C.2     1  ZINC000462219577    0.0800
      3 N3         -6.8349    3.8966   50.2888 N.2     1  ZINC000462219577   -0.2900
      4 N4         -5.9760    3.5561   51.3418 N.pl3   1  ZINC000462219577   -0.3200
      5 C5         -4.6478    3.1257   51.2169 C.ar    1  ZINC000462219577    0.1500
      6 C6         -3.6498    3.7190   51.9782 C.ar    1  ZINC000462219577   -0.1100
      7 C7         -2.3420    3.2928   51.8529 C.ar    1  ZINC000462219577   -0.1000
      8 C8         -2.0261    2.2765   50.9698 C.ar    1  ZINC000462219577   -0.1200
      9 C9         -3.0179    1.6840   50.2099 C.ar    1  ZINC000462219577   -0.1000
     10 C10        -4.3284    2.1014   50.3357 C.ar    1  ZINC000462219577   -0.1300
     11 C11        -6.6551    3.7164   52.5002 C.2     1  ZINC000462219577    0.0900
     12 C12        -6.1201    3.4644   53.8862 C.3     1  ZINC000462219577   -0.0800
     13 C13        -7.2874    3.2600   54.8541 C.3     1  ZINC000462219577    0.1700
     14 H14        -7.9905    4.0870   54.7551 H       1  ZINC000462219577    0.1000
     15 C15        -6.7576    3.2099   56.2886 C.3     1  ZINC000462219577   -0.1600
     16 N16        -7.9671    2.0008   54.5403 N.am    1  ZINC000462219577   -0.7400
     17 C17        -9.2984    1.9877   54.3304 C.2     1  ZINC000462219577    0.7100
     18 O18        -9.9349    3.0212   54.4000 O.2     1  ZINC000462219577   -0.5800
     19 N19        -9.9240    0.8289   54.0433 N.am    1  ZINC000462219577   -0.7400
     20 C20       -11.3707    0.8149   53.8134 C.3     1  ZINC000462219577    0.1600
     21 H21       -11.7736    1.8163   53.9650 H       1  ZINC000462219577    0.1000
     22 C22       -11.6574    0.3589   52.3794 C.3     1  ZINC000462219577   -0.1700
     23 C23       -11.1561   -1.0763   52.1989 C.3     1  ZINC000462219577    0.0700
     24 O24       -11.7905   -1.9251   53.1575 O.3     1  ZINC000462219577   -0.3700
     25 C25       -11.5195   -1.5752   54.5163 C.3     1  ZINC000462219577    0.1400
     26 H26       -10.4446   -1.6110   54.6935 H       1  ZINC000462219577    0.0600
     27 C27       -12.2127   -2.5493   55.4339 C.ar    1  ZINC000462219577   -0.0900
     28 C28       -13.5877   -2.6839   55.3875 C.ar    1  ZINC000462219577   -0.0900
     29 C29       -14.2235   -3.5774   56.2292 C.ar    1  ZINC000462219577   -0.1200
     30 C30       -13.4843   -4.3364   57.1170 C.ar    1  ZINC000462219577   -0.1200
     31 C31       -12.1091   -4.2024   57.1628 C.ar    1  ZINC000462219577   -0.1200
     32 C32       -11.4730   -3.3121   56.3181 C.ar    1  ZINC000462219577   -0.1100
     33 C33       -12.0357   -0.1584   54.7916 C.3     1  ZINC000462219577   -0.1500
     34 C34        -7.8993    4.1497   52.1914 C.2     1  ZINC000462219577   -0.2600
     35 H35        -9.1681    5.7711   49.8804 H       1  ZINC000462219577    0.0800
     36 H36        -9.2057    4.1988   49.0468 H       1  ZINC000462219577    0.0700
     37 H37       -10.1023    4.4212   50.5682 H       1  ZINC000462219577    0.0800
     38 H38        -3.8958    4.5131   52.6675 H       1  ZINC000462219577    0.1300
     39 H39        -1.5653    3.7538   52.4448 H       1  ZINC000462219577    0.1300
     40 H40        -1.0028    1.9452   50.8733 H       1  ZINC000462219577    0.1300
     41 H41        -2.7681    0.8911   49.5206 H       1  ZINC000462219577    0.1300
     42 H42        -5.1026    1.6382   49.7419 H       1  ZINC000462219577    0.1300
     43 H43        -5.4947    2.5718   53.8777 H       1  ZINC000462219577    0.0900
     44 H44        -5.5271    4.3205   54.2080 H       1  ZINC000462219577    0.1100
     45 H45        -6.0544    2.3829   56.3876 H       1  ZINC000462219577    0.0600
     46 H46        -6.2519    4.1468   56.5221 H       1  ZINC000462219577    0.0700
     47 H47        -7.5892    3.0642   56.9781 H       1  ZINC000462219577    0.0700
     48 H48        -7.4590    1.1764   54.4836 H       1  ZINC000462219577    0.3900
     49 H49        -9.4162    0.0042   53.9889 H       1  ZINC000462219577    0.3900
     50 H50       -12.7307    0.3961   52.1931 H       1  ZINC000462219577    0.0800
     51 H51       -11.1420    1.0156   51.6785 H       1  ZINC000462219577    0.0800
     52 H52       -11.3958   -1.4212   51.1930 H       1  ZINC000462219577    0.1000
     53 H53       -10.0764   -1.1055   52.3457 H       1  ZINC000462219577    0.0500
     54 H54       -14.1652   -2.0909   54.6938 H       1  ZINC000462219577    0.1300
     55 H55       -15.2978   -3.6822   56.1933 H       1  ZINC000462219577    0.1200
     56 H56       -13.9810   -5.0340   57.7750 H       1  ZINC000462219577    0.1200
     57 H57       -11.5317   -4.7952   57.8567 H       1  ZINC000462219577    0.1200
     58 H58       -10.3987   -3.2073   56.3540 H       1  ZINC000462219577    0.1200
     59 H59       -11.7903    0.1263   55.8147 H       1  ZINC000462219577    0.0800
     60 H60       -13.1166   -0.1314   54.6541 H       1  ZINC000462219577    0.0900
     61 H61        -8.6873    4.3728   52.8955 H       1  ZINC000462219577    0.1500
@<TRIPOS>BOND
     1     1     2    1
     2     1    35    1
     3     1    36    1
     4     1    37    1
     5     2    34    1
     6     2     3    2
     7     3     4    1
     8     4     5    1
     9     4    11    1
    10     5    10   ar
    11     5     6   ar
    12     6     7   ar
    13     6    38    1
    14     7     8   ar
    15     7    39    1
    16     8     9   ar
    17     8    40    1
    18     9    10   ar
    19     9    41    1
    20    10    42    1
    21    11    12    1
    22    11    34    2
    23    12    13    1
    24    12    43    1
    25    12    44    1
    26    13    14    1
    27    13    15    1
    28    13    16    1
    29    15    45    1
    30    15    46    1
    31    15    47    1
    32    16    17   am
    33    16    48    1
    34    17    18    2
    35    17    19   am
    36    19    20    1
    37    19    49    1
    38    20    21    1
    39    20    33    1
    40    20    22    1
    41    22    23    1
    42    22    50    1
    43    22    51    1
    44    23    24    1
    45    23    52    1
    46    23    53    1
    47    24    25    1
    48    25    26    1
    49    25    27    1
    50    25    33    1
    51    27    32   ar
    52    27    28   ar
    53    28    29   ar
    54    28    54    1
    55    29    30   ar
    56    29    55    1
    57    30    31   ar
    58    30    56    1
    59    31    32   ar
    60    31    57    1
    61    32    58    1
    62    33    59    1
    63    33    60    1
    64    34    61    1
@<TRIPOS>SUBSTRUCTURE
     1 ZINC000462219577        1 TEMP              0 ****  ****    0 ROOT


##########                                Name:    ZINC001009116151
##########                DOCK_Rotatable_Bonds:                   6
##########                         Heavy_Atoms:                  25
##########                    Molecular_Weight:             342.481
##########                DOCK_Rotatable_Bonds:                   6
##########                       Formal_Charge:           0.0600006
##########                     HBond_Acceptors:                   4
##########                        HBond_Donors:                   1
##########                         Heavy_Atoms:                  25
##########                          Grid_Score:          -32.129383
##########                     Grid_vdw_energy:          -30.907589
##########                      Grid_es_energy:           -1.221794
##########           Internal_energy_repulsive:           11.242576

@<TRIPOS>MOLECULE
ZINC001009116151
 55 59 1 0 0
SMALL
USER_CHARGES


@<TRIPOS>ATOM
      1 O1          1.1667    4.1051   49.1353 O.2     1  ZINC001009116151   -0.5400
      2 C2          1.1527    3.3111   50.0520 C.2     1  ZINC001009116151    0.5200
      3 N3          0.0458    3.1753   50.8089 N.am    1  ZINC001009116151   -0.7300
      4 C4         -1.1382    3.9911   50.5283 C.3     1  ZINC001009116151    0.1500
      5 C5         -2.3715    3.0894   50.4473 C.3     1  ZINC001009116151   -0.1200
      6 H6         -2.2105    2.1138   49.9884 H       1  ZINC001009116151    0.1100
      7 C7         -3.7244    3.7643   50.2129 C.3     1  ZINC001009116151   -0.1700
      8 H8         -3.7660    4.8403   50.0444 H       1  ZINC001009116151    0.1200
      9 C9         -4.8777    2.9064   49.6493 C.3     1  ZINC001009116151    0.1300
     10 N10        -5.5143    2.3045   50.8440 N.am    1  ZINC001009116151   -0.6200
     11 C11        -6.8289    2.1168   51.0741 C.2     1  ZINC001009116151    0.5500
     12 O12        -7.6446    2.4575   50.2438 O.2     1  ZINC001009116151   -0.5300
     13 C13        -7.2852    1.4833   52.3631 C.3     1  ZINC001009116151   -0.1200
     14 C14        -8.7449    1.8763   52.6886 C.3     1  ZINC001009116151   -0.0900
     15 C15        -9.5822    0.7640   52.1012 C.2     1  ZINC001009116151   -0.1800
     16 C16        -8.8527   -0.2871   51.8428 C.2     1  ZINC001009116151   -0.1500
     17 C17        -7.4074   -0.0511   52.2148 C.3     1  ZINC001009116151   -0.0900
     18 C18        -4.3780    1.9560   51.7284 C.3     1  ZINC001009116151    0.1200
     19 C19        -3.3814    3.1713   51.5938 C.3     1  ZINC001009116151   -0.1600
     20 H20        -3.2011    3.7774   52.4815 H       1  ZINC001009116151    0.1300
     21 C21         2.3706    2.4718   50.3408 C.3     1  ZINC001009116151   -0.0700
     22 C22         3.1347    3.0716   51.5229 C.3     1  ZINC001009116151   -0.1100
     23 C23         4.3712    2.2195   51.8160 C.3     1  ZINC001009116151   -0.1100
     24 C24         4.4314    1.0517   50.8294 C.3     1  ZINC001009116151   -0.0900
     25 C25         3.1737    0.1933   50.9777 C.3     1  ZINC001009116151   -0.1100
     26 C26         1.9372    1.0454   50.6846 C.3     1  ZINC001009116151   -0.0900
     27 C27         4.5129    1.5944   49.4012 C.3     1  ZINC001009116151   -0.1100
     28 C28         3.2764    2.4465   49.1080 C.3     1  ZINC001009116151   -0.1000
     29 H29         0.0331    2.5375   51.5396 H       1  ZINC001009116151    0.4000
     30 H30        -1.2737    4.7214   51.3261 H       1  ZINC001009116151    0.0800
     31 H31        -1.0049    4.5105   49.5793 H       1  ZINC001009116151    0.0700
     32 H32        -5.5909    3.5330   49.1137 H       1  ZINC001009116151    0.0900
     33 H33        -4.4871    2.1279   48.9939 H       1  ZINC001009116151    0.0800
     34 H34        -6.6167    1.7450   53.1833 H       1  ZINC001009116151    0.1100
     35 H35        -8.8914    1.9328   53.7671 H       1  ZINC001009116151    0.0900
     36 H36        -8.9953    2.8280   52.2199 H       1  ZINC001009116151    0.0800
     37 H37       -10.6447    0.8299   51.9194 H       1  ZINC001009116151    0.1300
     38 H38        -9.2325   -1.2051   51.4191 H       1  ZINC001009116151    0.1300
     39 H39        -6.7484   -0.4098   51.4241 H       1  ZINC001009116151    0.0900
     40 H40        -7.1727   -0.5438   53.1583 H       1  ZINC001009116151    0.0900
     41 H41        -4.7141    1.8654   52.7613 H       1  ZINC001009116151    0.0900
     42 H42        -3.9094    1.0291   51.3976 H       1  ZINC001009116151    0.0800
     43 H43         3.4435    4.0878   51.2779 H       1  ZINC001009116151    0.0700
     44 H44         2.4893    3.0897   52.4011 H       1  ZINC001009116151    0.0700
     45 H45         5.2673    2.8311   51.7102 H       1  ZINC001009116151    0.0700
     46 H46         4.3132    1.8329   52.8334 H       1  ZINC001009116151    0.0700
     47 H47         5.3124    0.4447   51.0382 H       1  ZINC001009116151    0.0700
     48 H48         3.2166   -0.6387   50.2748 H       1  ZINC001009116151    0.0700
     49 H49         3.1156   -0.1933   51.9952 H       1  ZINC001009116151    0.0700
     50 H50         1.2919    1.0634   51.5629 H       1  ZINC001009116151    0.0700
     51 H51         1.3927    0.6181   49.8425 H       1  ZINC001009116151    0.0700
     52 H52         5.4090    2.2060   49.2954 H       1  ZINC001009116151    0.0700
     53 H53         4.5558    0.7624   48.6982 H       1  ZINC001009116151    0.0700
     54 H54         2.7321    2.0192   48.2659 H       1  ZINC001009116151    0.0700
     55 H55         3.5852    3.4627   48.8630 H       1  ZINC001009116151    0.0700
@<TRIPOS>BOND
     1     1     2    2
     2     2     3   am
     3     2    21    1
     4     3     4    1
     5     3    29    1
     6     4     5    1
     7     4    30    1
     8     4    31    1
     9     5     6    1
    10     5    19    1
    11     5     7    1
    12     7     8    1
    13     7    19    1
    14     7     9    1
    15     9    10    1
    16     9    32    1
    17     9    33    1
    18    10    11   am
    19    10    18    1
    20    11    12    2
    21    11    13    1
    22    13    17    1
    23    13    14    1
    24    13    34    1
    25    14    15    1
    26    14    35    1
    27    14    36    1
    28    15    16    2
    29    15    37    1
    30    16    17    1
    31    16    38    1
    32    17    39    1
    33    17    40    1
    34    18    19    1
    35    18    41    1
    36    18    42    1
    37    19    20    1
    38    21    26    1
    39    21    28    1
    40    21    22    1
    41    22    23    1
    42    22    43    1
    43    22    44    1
    44    23    24    1
    45    23    45    1
    46    23    46    1
    47    24    25    1
    48    24    27    1
    49    24    47    1
    50    25    26    1
    51    25    48    1
    52    25    49    1
    53    26    50    1
    54    26    51    1
    55    27    28    1
    56    27    52    1
    57    27    53    1
    58    28    54    1
    59    28    55    1
@<TRIPOS>SUBSTRUCTURE
     1 ZINC001009116151        1 TEMP              0 ****  ****    0 ROOT


##########                                Name:    ZINC000533131987
##########                DOCK_Rotatable_Bonds:                  11
##########                         Heavy_Atoms:                  30
##########                    Molecular_Weight:             419.403
##########                DOCK_Rotatable_Bonds:                  11
##########                       Formal_Charge:                0.01
##########                     HBond_Acceptors:                   9
##########                        HBond_Donors:                   3
##########                         Heavy_Atoms:                  30
##########                          Grid_Score:          -32.116386
##########                     Grid_vdw_energy:          -32.126221
##########                      Grid_es_energy:            0.009835
##########           Internal_energy_repulsive:           32.871586

@<TRIPOS>MOLECULE
ZINC000533131987
 50 52 1 0 0
SMALL
USER_CHARGES


@<TRIPOS>ATOM
      1 O1         -9.9212    0.8214   53.8073 O.2     1  ZINC000533131987   -0.5700
      2 C2         -9.6127    0.2403   52.7848 C.2     1  ZINC000533131987    0.7100
      3 N3         -8.4173    0.4775   52.2093 N.am    1  ZINC000533131987   -0.7400
      4 C4         -7.4921    1.4398   52.8123 C.3     1  ZINC000533131987    0.1400
      5 C5         -6.4466    1.8598   51.7772 C.3     1  ZINC000533131987   -0.0900
      6 H6         -5.8903    0.9827   51.4463 H       1  ZINC000533131987    0.0900
      7 C7         -7.1460    2.5026   50.5779 C.3     1  ZINC000533131987    0.0800
      8 O8         -6.2843    3.4806   49.9920 O.3     1  ZINC000533131987   -0.5600
      9 C9         -5.4825    2.8679   52.4060 C.3     1  ZINC000533131987   -0.0900
     10 C10        -4.0937    2.6374   51.8682 C.ar    1  ZINC000533131987    0.0000
     11 C11        -3.9201    2.0144   50.6467 C.ar    1  ZINC000533131987   -0.1100
     12 C12        -2.6460    1.8030   50.1534 C.ar    1  ZINC000533131987   -0.0800
     13 C13        -1.5458    2.2151   50.8815 C.ar    1  ZINC000533131987   -0.1300
     14 C14        -1.7194    2.8389   52.1031 C.ar    1  ZINC000533131987   -0.0700
     15 C15        -2.9933    3.0542   52.5942 C.ar    1  ZINC000533131987   -0.1700
     16 C16        -3.1826    3.7344   53.9256 C.3     1  ZINC000533131987    0.5100
     17 F17        -3.5920    2.7932   54.8762 F       1  ZINC000533131987   -0.1800
     18 F18        -1.9739    4.3109   54.3308 F       1  ZINC000533131987   -0.1700
     19 F19        -4.1574    4.7307   53.8058 F       1  ZINC000533131987   -0.1800
     20 N20       -10.4640   -0.6451   52.2300 N.am    1  ZINC000533131987   -0.6900
     21 C21       -11.7054   -0.8914   52.8276 C.ar    1  ZINC000533131987    0.1600
     22 C22       -12.8101   -0.1256   52.4756 C.ar    1  ZINC000533131987   -0.1000
     23 C23       -14.0386   -0.3649   53.0630 C.ar    1  ZINC000533131987   -0.1000
     24 C24       -14.1758   -1.3658   54.0028 C.ar    1  ZINC000533131987   -0.1000
     25 C25       -13.0718   -2.1408   54.3633 C.ar    1  ZINC000533131987    0.0000
     26 C26       -13.2161   -3.2143   55.3696 C.2     1  ZINC000533131987    0.2300
     27 N27       -14.3063   -3.9074   55.5996 N.2     1  ZINC000533131987   -0.4700
     28 C28       -14.0557   -4.7885   56.5797 C.2     1  ZINC000533131987   -0.0400
     29 C29       -12.7749   -4.6290   56.9598 C.2     1  ZINC000533131987   -0.0700
     30 O30       -12.2508   -3.6480   56.1986 O.3     1  ZINC000533131987   -0.2000
     31 C31       -11.8341   -1.9032   53.7666 C.ar    1  ZINC000533131987   -0.1000
     32 H32        -8.1697    0.0109   51.3957 H       1  ZINC000533131987    0.4000
     33 H33        -8.0465    2.3172   53.1453 H       1  ZINC000533131987    0.0700
     34 H34        -6.9940    0.9794   53.6656 H       1  ZINC000533131987    0.0800
     35 H35        -7.3799    1.7355   49.8396 H       1  ZINC000533131987    0.0400
     36 H36        -8.0675    2.9817   50.9085 H       1  ZINC000533131987    0.0600
     37 H37        -5.4216    3.1351   49.7246 H       1  ZINC000533131987    0.3800
     38 H38        -5.8040    3.8800   52.1602 H       1  ZINC000533131987    0.0800
     39 H39        -5.4788    2.7406   53.4885 H       1  ZINC000533131987    0.0900
     40 H40        -4.7799    1.6925   50.0778 H       1  ZINC000533131987    0.1300
     41 H41        -2.5104    1.3155   49.1992 H       1  ZINC000533131987    0.1300
     42 H42        -0.5505    2.0492   50.4966 H       1  ZINC000533131987    0.1300
     43 H43        -0.8598    3.1606   52.6721 H       1  ZINC000533131987    0.1300
     44 H44       -10.2163   -1.1117   51.4164 H       1  ZINC000533131987    0.4100
     45 H45       -12.7086    0.6594   51.7408 H       1  ZINC000533131987    0.1500
     46 H46       -14.8935    0.2338   52.7857 H       1  ZINC000533131987    0.1400
     47 H47       -15.1370   -1.5494   54.4597 H       1  ZINC000533131987    0.1300
     48 H48       -14.7573   -5.4993   56.9907 H       1  ZINC000533131987    0.1900
     49 H49       -12.2611   -5.1862   57.7290 H       1  ZINC000533131987    0.2200
     50 H50       -10.9767   -2.4995   54.0414 H       1  ZINC000533131987    0.1400
@<TRIPOS>BOND
     1     1     2    2
     2     2     3   am
     3     2    20   am
     4     3     4    1
     5     3    32    1
     6     4     5    1
     7     4    33    1
     8     4    34    1
     9     5     6    1
    10     5     7    1
    11     5     9    1
    12     7     8    1
    13     7    35    1
    14     7    36    1
    15     8    37    1
    16     9    10    1
    17     9    38    1
    18     9    39    1
    19    10    15   ar
    20    10    11   ar
    21    11    12   ar
    22    11    40    1
    23    12    13   ar
    24    12    41    1
    25    13    14   ar
    26    13    42    1
    27    14    15   ar
    28    14    43    1
    29    15    16    1
    30    16    17    1
    31    16    18    1
    32    16    19    1
    33    20    21    1
    34    20    44    1
    35    21    31   ar
    36    21    22   ar
    37    22    23   ar
    38    22    45    1
    39    23    24   ar
    40    23    46    1
    41    24    25   ar
    42    24    47    1
    43    25    26    1
    44    25    31   ar
    45    26    30    1
    46    26    27    2
    47    27    28    1
    48    28    29    2
    49    28    48    1
    50    29    30    1
    51    29    49    1
    52    31    50    1
@<TRIPOS>SUBSTRUCTURE
     1 ZINC000533131987        1 TEMP              0 ****  ****    0 ROOT


##########                                Name:    ZINC001282645012
##########                DOCK_Rotatable_Bonds:                   9
##########                         Heavy_Atoms:                  27
##########                    Molecular_Weight:             372.511
##########                DOCK_Rotatable_Bonds:                   9
##########                       Formal_Charge:          -0.0200004
##########                     HBond_Acceptors:                   6
##########                        HBond_Donors:                   1
##########                         Heavy_Atoms:                  27
##########                          Grid_Score:          -32.097794
##########                     Grid_vdw_energy:          -30.427235
##########                      Grid_es_energy:           -1.670560
##########           Internal_energy_repulsive:           29.390509

@<TRIPOS>MOLECULE
ZINC001282645012
 59 61 1 0 0
SMALL
USER_CHARGES


@<TRIPOS>ATOM
      1 C1          2.3442    0.2671   48.9792 C.2     1  ZINC001282645012   -0.1900
      2 C2          2.7178    0.2267   50.2341 C.2     1  ZINC001282645012   -0.1300
      3 C3          3.8107    1.1411   50.7247 C.3     1  ZINC001282645012   -0.0500
      4 C4          4.0945    0.8508   52.1999 C.3     1  ZINC001282645012   -0.1500
      5 C5          5.0805    0.9039   49.9047 C.3     1  ZINC001282645012   -0.1400
      6 C6          3.3733    2.5749   50.5699 C.2     1  ZINC001282645012    0.5500
      7 O7          4.0817    3.3649   49.9826 O.2     1  ZINC001282645012   -0.5300
      8 N8          2.1950    2.9792   51.0843 N.am    1  ZINC001282645012   -0.6300
      9 C9          1.5288    4.3259   51.0739 C.3     1  ZINC001282645012    0.1200
     10 H10         2.0783    5.1243   50.5754 H       1  ZINC001282645012    0.1300
     11 C11         1.2640    4.5398   52.5947 C.3     1  ZINC001282645012   -0.1300
     12 C12         1.0014    3.1067   53.1196 C.3     1  ZINC001282645012   -0.1300
     13 C13         1.1402    2.2206   51.8387 C.3     1  ZINC001282645012    0.1200
     14 H14         1.3499    1.1659   52.0169 H       1  ZINC001282645012    0.1200
     15 C15        -0.1380    2.5195   50.9988 C.3     1  ZINC001282645012    0.1300
     16 H16        -0.2267    1.8162   50.1709 H       1  ZINC001282645012    0.1000
     17 N17        -1.3336    2.4721   51.8442 N.am    1  ZINC001282645012   -0.7100
     18 C18        -2.5426    2.7512   51.3179 C.2     1  ZINC001282645012    0.5100
     19 O19        -2.6406    3.0429   50.1448 O.2     1  ZINC001282645012   -0.5100
     20 C20        -3.7727    2.7007   52.1871 C.3     1  ZINC001282645012    0.1200
     21 H21        -3.6670    1.9009   52.9201 H       1  ZINC001282645012    0.1300
     22 C22        -3.9404    4.0378   52.9116 C.3     1  ZINC001282645012   -0.1100
     23 C23        -4.9030    3.8631   54.0879 C.3     1  ZINC001282645012   -0.1000
     24 C24        -4.1101    3.5092   55.3477 C.3     1  ZINC001282645012   -0.1500
     25 C25        -5.6697    5.1671   54.3175 C.3     1  ZINC001282645012   -0.1500
     26 N26        -4.9498    2.4461   51.3529 N.pl3   1  ZINC001282645012   -0.4500
     27 C27        -5.8028    1.3805   51.4554 C.2     1  ZINC001282645012   -0.0600
     28 C28        -6.7408    1.5393   50.5022 C.2     1  ZINC001282645012   -0.0200
     29 N29        -6.4679    2.6707   49.8358 N.2     1  ZINC001282645012   -0.4900
     30 C30        -5.3994    3.2220   50.3432 C.2     1  ZINC001282645012    0.1900
     31 C31         0.1457    3.9700   50.4499 C.3     1  ZINC001282645012   -0.1400
     32 H32         2.8193    0.9559   48.2962 H       1  ZINC001282645012    0.1000
     33 H33         1.5641   -0.3913   48.6265 H       1  ZINC001282645012    0.1000
     34 H34         2.2429   -0.4620   50.9170 H       1  ZINC001282645012    0.1100
     35 H35         4.4110   -0.1862   52.3118 H       1  ZINC001282645012    0.0700
     36 H36         4.8851    1.5122   52.5547 H       1  ZINC001282645012    0.0700
     37 H37         3.1900    1.0198   52.7840 H       1  ZINC001282645012    0.0600
     38 H38         4.8782    1.1106   48.8538 H       1  ZINC001282645012    0.0600
     39 H39         5.8710    1.5652   50.2596 H       1  ZINC001282645012    0.0700
     40 H40         5.3968   -0.1331   50.0166 H       1  ZINC001282645012    0.0700
     41 H41         2.1393    4.9719   53.0799 H       1  ZINC001282645012    0.0800
     42 H42         0.3885    5.1708   52.7470 H       1  ZINC001282645012    0.0800
     43 H43         1.7464    2.8283   53.8649 H       1  ZINC001282645012    0.0700
     44 H44        -0.0043    3.0273   53.5321 H       1  ZINC001282645012    0.0800
     45 H45        -1.2551    2.2399   52.7827 H       1  ZINC001282645012    0.4000
     46 H46        -2.9720    4.3745   53.2815 H       1  ZINC001282645012    0.0900
     47 H47        -4.3426    4.7779   52.2198 H       1  ZINC001282645012    0.0800
     48 H48        -5.6076    3.0618   53.8650 H       1  ZINC001282645012    0.0700
     49 H49        -3.4055    4.3104   55.5706 H       1  ZINC001282645012    0.0600
     50 H50        -4.7959    3.3847   56.1856 H       1  ZINC001282645012    0.0600
     51 H51        -3.5639    2.5802   55.1841 H       1  ZINC001282645012    0.0500
     52 H52        -6.3007    5.3746   53.4532 H       1  ZINC001282645012    0.0600
     53 H53        -6.2921    5.0708   55.2071 H       1  ZINC001282645012    0.0600
     54 H54        -4.9625    5.9849   54.4557 H       1  ZINC001282645012    0.0600
     55 H55        -5.7363    0.5685   52.1643 H       1  ZINC001282645012    0.1700
     56 H56        -7.5678    0.8722   50.3082 H       1  ZINC001282645012    0.1700
     57 H57        -4.9458    4.1426   50.0069 H       1  ZINC001282645012    0.2000
     58 H58        -0.6073    4.6710   50.8099 H       1  ZINC001282645012    0.0900
     59 H59         0.1805    3.9684   49.3605 H       1  ZINC001282645012    0.0900
@<TRIPOS>BOND
     1     1     2    2
     2     1    32    1
     3     1    33    1
     4     2     3    1
     5     2    34    1
     6     3     4    1
     7     3     5    1
     8     3     6    1
     9     4    35    1
    10     4    36    1
    11     4    37    1
    12     5    38    1
    13     5    39    1
    14     5    40    1
    15     6     7    2
    16     6     8   am
    17     8    13    1
    18     8     9    1
    19     9    10    1
    20     9    31    1
    21     9    11    1
    22    11    12    1
    23    11    41    1
    24    11    42    1
    25    12    13    1
    26    12    43    1
    27    12    44    1
    28    13    14    1
    29    13    15    1
    30    15    16    1
    31    15    17    1
    32    15    31    1
    33    17    18   am
    34    17    45    1
    35    18    19    2
    36    18    20    1
    37    20    21    1
    38    20    22    1
    39    20    26    1
    40    22    23    1
    41    22    46    1
    42    22    47    1
    43    23    24    1
    44    23    25    1
    45    23    48    1
    46    24    49    1
    47    24    50    1
    48    24    51    1
    49    25    52    1
    50    25    53    1
    51    25    54    1
    52    26    30    1
    53    26    27    1
    54    27    28    2
    55    27    55    1
    56    28    29    1
    57    28    56    1
    58    29    30    2
    59    30    57    1
    60    31    58    1
    61    31    59    1
@<TRIPOS>SUBSTRUCTURE
     1 ZINC001282645012        1 TEMP              0 ****  ****    0 ROOT


##########                                Name:    ZINC000906038034
##########                DOCK_Rotatable_Bonds:                   5
##########                         Heavy_Atoms:                  23
##########                    Molecular_Weight:             387.428
##########                DOCK_Rotatable_Bonds:                   5
##########                       Formal_Charge:         -0.00999987
##########                     HBond_Acceptors:                  12
##########                        HBond_Donors:                   0
##########                         Heavy_Atoms:                  23
##########                          Grid_Score:          -32.073315
##########                     Grid_vdw_energy:          -30.951429
##########                      Grid_es_energy:           -1.121885
##########           Internal_energy_repulsive:            6.578807

@<TRIPOS>MOLECULE
ZINC000906038034
 35 36 1 0 0
SMALL
USER_CHARGES


@<TRIPOS>ATOM
      1 C1         -1.2159    2.4899   58.5689 C.3     1  ZINC000906038034    0.1000
      2 N2         -2.0913    2.7610   57.4258 N.pl3   1  ZINC000906038034   -0.3700
      3 C3         -3.4419    2.7522   57.4426 C.2     1  ZINC000906038034    0.0600
      4 C4         -3.8771    3.0488   56.1993 C.2     1  ZINC000906038034   -0.2500
      5 C5         -2.7457    3.2488   55.3817 C.2     1  ZINC000906038034    0.1200
      6 C6         -2.7608    3.5935   53.9435 C.2     1  ZINC000906038034    0.1500
      7 N7         -3.8290    3.7701   53.2199 N.2     1  ZINC000906038034   -0.4300
      8 C8         -3.6493    4.0733   51.9544 C.2     1  ZINC000906038034    0.0600
      9 C9         -4.8047    4.3025   51.0145 C.3     1  ZINC000906038034   -0.5300
     10 S10        -5.1435    2.7791   50.0899 S.o2    1  ZINC000906038034    2.4200
     11 O11        -6.3580    2.9461   49.3713 O.2     1  ZINC000906038034   -0.9100
     12 O12        -3.9668    2.4054   49.3863 O.2     1  ZINC000906038034   -0.9200
     13 C13        -5.4220    1.5839   51.4258 C.3     1  ZINC000906038034   -0.6100
     14 C14        -6.8292    1.7742   51.9953 C.3     1  ZINC000906038034   -0.4500
     15 S15        -7.5653    0.1530   52.3427 S.o     1  ZINC000906038034    1.3300
     16 O16        -7.7158   -0.5689   51.1281 O.2     1  ZINC000906038034   -0.7600
     17 C17        -9.2016    0.5801   52.9989 C.3     1  ZINC000906038034    0.1200
     18 F18        -9.9169    1.3001   52.0361 F       1  ZINC000906038034   -0.1900
     19 F19        -9.8969   -0.5916   53.3168 F       1  ZINC000906038034   -0.1700
     20 F20        -9.0531    1.3611   54.1502 F       1  ZINC000906038034   -0.1600
     21 C21        -2.3780    4.1663   51.5522 C.2     1  ZINC000906038034   -0.2300
     22 S22        -1.3366    3.8387   52.9359 S.3     1  ZINC000906038034    0.1600
     23 N23        -1.6725    3.0798   56.1278 N.2     1  ZINC000906038034   -0.2400
     24 H24        -1.0064    3.4213   59.0949 H       1  ZINC000906038034    0.0800
     25 H25        -1.7087    1.7928   59.2466 H       1  ZINC000906038034    0.0900
     26 H26        -0.2814    2.0540   58.2155 H       1  ZINC000906038034    0.0900
     27 H27        -4.0646    2.5441   58.3002 H       1  ZINC000906038034    0.1800
     28 H28        -4.9084    3.1197   55.8865 H       1  ZINC000906038034    0.1600
     29 H29        -5.6884    4.5842   51.5871 H       1  ZINC000906038034    0.1500
     30 H30        -4.5532    5.1021   50.3178 H       1  ZINC000906038034    0.1600
     31 H31        -5.3223    0.5715   51.0343 H       1  ZINC000906038034    0.1500
     32 H32        -4.6864    1.7424   52.2144 H       1  ZINC000906038034    0.1500
     33 H33        -6.7728    2.3528   52.9172 H       1  ZINC000906038034    0.1600
     34 H34        -7.4459    2.3054   51.2702 H       1  ZINC000906038034    0.1300
     35 H35        -2.0461    4.4053   50.5526 H       1  ZINC000906038034    0.1900
@<TRIPOS>BOND
     1     1     2    1
     2     1    24    1
     3     1    25    1
     4     1    26    1
     5     2    23    1
     6     2     3    1
     7     3     4    2
     8     3    27    1
     9     4     5    1
    10     4    28    1
    11     5     6    1
    12     5    23    2
    13     6    22    1
    14     6     7    2
    15     7     8    1
    16     8     9    1
    17     8    21    2
    18     9    10    1
    19     9    29    1
    20     9    30    1
    21    10    11    2
    22    10    12    2
    23    10    13    1
    24    13    14    1
    25    13    31    1
    26    13    32    1
    27    14    15    1
    28    14    33    1
    29    14    34    1
    30    15    16    2
    31    15    17    1
    32    17    18    1
    33    17    19    1
    34    17    20    1
    35    21    22    1
    36    21    35    1
@<TRIPOS>SUBSTRUCTURE
     1 ZINC000906038034        1 TEMP              0 ****  ****    0 ROOT


##########                                Name:    ZINC000186316242
##########                DOCK_Rotatable_Bonds:                   7
##########                         Heavy_Atoms:                  28
##########                    Molecular_Weight:             392.525
##########                DOCK_Rotatable_Bonds:                   7
##########                       Formal_Charge:         -0.00999981
##########                     HBond_Acceptors:                   6
##########                        HBond_Donors:                   0
##########                         Heavy_Atoms:                  28
##########                          Grid_Score:          -32.071644
##########                     Grid_vdw_energy:          -32.055065
##########                      Grid_es_energy:           -0.016580
##########           Internal_energy_repulsive:           19.480263

@<TRIPOS>MOLECULE
ZINC000186316242
 52 55 1 0 0
SMALL
USER_CHARGES


@<TRIPOS>ATOM
      1 C1        -14.6835   -2.4282   58.1761 C.3     1  ZINC000186316242   -0.1500
      2 C2        -13.7116   -1.2481   58.2380 C.3     1  ZINC000186316242    0.1000
      3 N3        -12.7319   -1.3650   57.1551 N.am    1  ZINC000186316242   -0.5900
      4 C4        -13.1122   -1.1649   55.8777 C.2     1  ZINC000186316242    0.5900
      5 O5        -14.2689   -0.8872   55.6239 O.2     1  ZINC000186316242   -0.5000
      6 C6        -12.1269   -1.2826   54.7886 C.2     1  ZINC000186316242    0.0100
      7 C7        -12.1435   -2.3095   53.8924 C.2     1  ZINC000186316242   -0.2100
      8 S8        -10.8547   -2.1042   52.7871 S.3     1  ZINC000186316242    0.2000
      9 C9        -10.3613   -0.6275   53.6070 C.2     1  ZINC000186316242    0.0700
     10 C10        -9.2152    0.2225   53.2175 C.ar    1  ZINC000186316242    0.1900
     11 C11        -8.6155    0.0466   51.9708 C.ar    1  ZINC000186316242   -0.1500
     12 C12        -7.5441    0.8501   51.6206 C.ar    1  ZINC000186316242   -0.0700
     13 C13        -7.1069    1.8040   52.5285 C.ar    1  ZINC000186316242   -0.1600
     14 C14        -7.7482    1.9247   53.7484 C.ar    1  ZINC000186316242    0.1100
     15 N15        -8.7687    1.1511   54.0556 N.ar    1  ZINC000186316242   -0.4500
     16 N16       -11.1609   -0.3957   54.6025 N.2     1  ZINC000186316242   -0.3900
     17 C17       -11.3387   -1.6996   57.4607 C.3     1  ZINC000186316242    0.1400
     18 H18       -10.7691   -1.8226   56.5395 H       1  ZINC000186316242    0.1000
     19 C19       -11.2705   -2.9895   58.3099 C.3     1  ZINC000186316242   -0.1300
     20 C20       -10.1358   -2.6806   59.3187 C.3     1  ZINC000186316242    0.0400
     21 N21       -10.3342   -1.2404   59.6229 N.3     1  ZINC000186316242   -0.4900
     22 C22        -9.1080   -0.6440   60.1693 C.3     1  ZINC000186316242    0.0800
     23 C23        -9.3924   -0.0728   61.5346 C.ar    1  ZINC000186316242   -0.0700
     24 C24       -10.4347    0.8186   61.7075 C.ar    1  ZINC000186316242   -0.1000
     25 C25       -10.6955    1.3425   62.9598 C.ar    1  ZINC000186316242   -0.1200
     26 C26        -9.9145    0.9746   64.0394 C.ar    1  ZINC000186316242   -0.1200
     27 C27        -8.8728    0.0824   63.8666 C.ar    1  ZINC000186316242   -0.1200
     28 C28        -8.6145   -0.4448   62.6151 C.ar    1  ZINC000186316242   -0.1100
     29 C29       -10.7059   -0.6036   58.3381 C.3     1  ZINC000186316242    0.0400
     30 H30       -15.4124   -2.3412   58.9818 H       1  ZINC000186316242    0.0700
     31 H31       -15.2003   -2.4234   57.2165 H       1  ZINC000186316242    0.0500
     32 H32       -14.1300   -3.3608   58.2860 H       1  ZINC000186316242    0.0400
     33 H33       -14.2651   -0.3156   58.1280 H       1  ZINC000186316242    0.1200
     34 H34       -13.1947   -1.2529   59.1976 H       1  ZINC000186316242    0.0700
     35 H35       -12.8555   -3.1215   53.8819 H       1  ZINC000186316242    0.1900
     36 H36        -8.9816   -0.7062   51.2885 H       1  ZINC000186316242    0.1400
     37 H37        -7.0593    0.7370   50.6624 H       1  ZINC000186316242    0.1400
     38 H38        -6.2732    2.4460   52.2852 H       1  ZINC000186316242    0.1400
     39 H39        -7.4096    2.6659   54.4571 H       1  ZINC000186316242    0.1600
     40 H40       -12.2134   -3.1592   58.8300 H       1  ZINC000186316242    0.0900
     41 H41       -11.0117   -3.8471   57.6889 H       1  ZINC000186316242    0.0700
     42 H42       -10.2478   -3.2832   60.2200 H       1  ZINC000186316242    0.0800
     43 H43        -9.1599   -2.8466   58.8625 H       1  ZINC000186316242    0.0400
     44 H44        -8.3360   -1.4093   60.2492 H       1  ZINC000186316242    0.0400
     45 H45        -8.7643    0.1509   59.5074 H       1  ZINC000186316242    0.0800
     46 H46       -11.0449    1.1061   60.8641 H       1  ZINC000186316242    0.1200
     47 H47       -11.5094    2.0394   63.0948 H       1  ZINC000186316242    0.1200
     48 H48       -10.1178    1.3844   65.0177 H       1  ZINC000186316242    0.1200
     49 H49        -8.2623   -0.2049   64.7100 H       1  ZINC000186316242    0.1200
     50 H50        -7.8007   -1.1419   62.4802 H       1  ZINC000186316242    0.1200
     51 H51        -9.8168   -0.2027   57.8515 H       1  ZINC000186316242    0.0500
     52 H52       -11.4277    0.1938   58.5141 H       1  ZINC000186316242    0.0800
@<TRIPOS>BOND
     1     1     2    1
     2     1    30    1
     3     1    31    1
     4     1    32    1
     5     2     3    1
     6     2    33    1
     7     2    34    1
     8     3     4   am
     9     3    17    1
    10     4     5    2
    11     4     6    1
    12     6    16    1
    13     6     7    2
    14     7     8    1
    15     7    35    1
    16     8     9    1
    17     9    10    1
    18     9    16    2
    19    10    15   ar
    20    10    11   ar
    21    11    12   ar
    22    11    36    1
    23    12    13   ar
    24    12    37    1
    25    13    14   ar
    26    13    38    1
    27    14    15   ar
    28    14    39    1
    29    17    18    1
    30    17    29    1
    31    17    19    1
    32    19    20    1
    33    19    40    1
    34    19    41    1
    35    20    21    1
    36    20    42    1
    37    20    43    1
    38    21    22    1
    39    21    29    1
    40    22    23    1
    41    22    44    1
    42    22    45    1
    43    23    28   ar
    44    23    24   ar
    45    24    25   ar
    46    24    46    1
    47    25    26   ar
    48    25    47    1
    49    26    27   ar
    50    26    48    1
    51    27    28   ar
    52    27    49    1
    53    28    50    1
    54    29    51    1
    55    29    52    1
@<TRIPOS>SUBSTRUCTURE
     1 ZINC000186316242        1 TEMP              0 ****  ****    0 ROOT


##########                                Name:    ZINC000265786263
##########                DOCK_Rotatable_Bonds:                   7
##########                         Heavy_Atoms:                  28
##########                    Molecular_Weight:             386.451
##########                DOCK_Rotatable_Bonds:                   7
##########                       Formal_Charge:           0.0499992
##########                     HBond_Acceptors:                   8
##########                        HBond_Donors:                   2
##########                         Heavy_Atoms:                  28
##########                          Grid_Score:          -32.067371
##########                     Grid_vdw_energy:          -30.821466
##########                      Grid_es_energy:           -1.245906
##########           Internal_energy_repulsive:           17.271442

@<TRIPOS>MOLECULE
ZINC000265786263
 54 57 1 0 0
SMALL
USER_CHARGES


@<TRIPOS>ATOM
      1 C1        -13.4028    0.4359   54.7796 C.3     1  ZINC000265786263   -0.1500
      2 C2        -12.2942   -0.6115   54.6563 C.3     1  ZINC000265786263    0.1600
      3 C3        -12.4354   -1.6735   55.7486 C.3     1  ZINC000265786263   -0.1600
      4 C4        -13.4193   -2.8181   55.4982 C.3     1  ZINC000265786263   -0.1600
      5 C5        -11.9127   -3.0779   55.4402 C.3     1  ZINC000265786263   -0.1600
      6 N6        -12.3136   -1.2318   53.3203 N.am    1  ZINC000265786263   -0.7100
      7 C7        -11.1291   -0.9503   52.7481 C.2     1  ZINC000265786263    0.7100
      8 O8        -10.8135   -1.3160   51.6328 O.2     1  ZINC000265786263   -0.5400
      9 N9        -10.3371   -0.2228   53.5441 N.am    1  ZINC000265786263   -0.5600
     10 C10        -8.9920    0.2274   53.1776 C.3     1  ZINC000265786263    0.1000
     11 C11        -9.0924    1.3293   52.1545 C.2     1  ZINC000265786263    0.5100
     12 O12       -10.1693    1.8277   51.9037 O.2     1  ZINC000265786263   -0.5300
     13 N13        -7.9855    1.7610   51.5182 N.am    1  ZINC000265786263   -0.6100
     14 C14        -8.0600    2.8406   50.5221 C.3     1  ZINC000265786263    0.1100
     15 C15        -7.0146    3.9034   50.8770 C.3     1  ZINC000265786263    0.0400
     16 N16        -5.6972    3.2662   51.0051 N.3     1  ZINC000265786263   -0.5300
     17 C17        -4.6402    4.2720   51.1747 C.3     1  ZINC000265786263    0.0900
     18 C18        -3.2942    3.6260   50.9691 C.ar    1  ZINC000265786263   -0.0600
     19 C19        -3.1698    2.5460   50.1152 C.ar    1  ZINC000265786263   -0.1300
     20 C20        -1.9362    1.9510   49.9244 C.ar    1  ZINC000265786263   -0.1000
     21 C21        -0.8249    2.4348   50.5868 C.ar    1  ZINC000265786263   -0.1400
     22 C22        -0.9472    3.5186   51.4444 C.ar    1  ZINC000265786263    0.1100
     23 O23         0.1448    3.9966   52.0971 O.3     1  ZINC000265786263   -0.5000
     24 C24        -2.1847    4.1172   51.6299 C.ar    1  ZINC000265786263   -0.1200
     25 C25        -5.6803    2.2940   52.1061 C.3     1  ZINC000265786263    0.0400
     26 C26        -6.6701    1.1694   51.8061 C.3     1  ZINC000265786263    0.1200
     27 C27       -10.9299    0.0455   54.7243 C.2     1  ZINC000265786263    0.5400
     28 O28       -10.4683    0.6808   55.6480 O.2     1  ZINC000265786263   -0.4500
     29 H29       -13.3083    1.1617   53.9719 H       1  ZINC000265786263    0.0700
     30 H30       -14.3743   -0.0542   54.7161 H       1  ZINC000265786263    0.0800
     31 H31       -13.3153    0.9462   55.7388 H       1  ZINC000265786263    0.0900
     32 H32       -12.3333   -1.3119   56.7718 H       1  ZINC000265786263    0.1100
     33 H33       -13.9649   -3.2096   56.3568 H       1  ZINC000265786263    0.1000
     34 H34       -13.9661   -2.8145   54.5553 H       1  ZINC000265786263    0.1100
     35 H35       -11.4683   -3.2455   54.4591 H       1  ZINC000265786263    0.1000
     36 H36       -11.4671   -3.6405   56.2606 H       1  ZINC000265786263    0.1000
     37 H37       -13.0388   -1.7438   52.9295 H       1  ZINC000265786263    0.4400
     38 H38        -8.4796    0.6005   54.0644 H       1  ZINC000265786263    0.1300
     39 H39        -8.4310   -0.6077   52.7583 H       1  ZINC000265786263    0.1300
     40 H40        -7.8517    2.4389   49.5305 H       1  ZINC000265786263    0.0900
     41 H41        -9.0548    3.2858   50.5383 H       1  ZINC000265786263    0.0900
     42 H42        -6.9795    4.6562   50.0895 H       1  ZINC000265786263    0.0900
     43 H43        -7.2831    4.3766   51.8214 H       1  ZINC000265786263    0.0400
     44 H44        -4.7762    5.0690   50.4436 H       1  ZINC000265786263    0.0900
     45 H45        -4.6932    4.6888   52.1805 H       1  ZINC000265786263    0.0500
     46 H46        -4.0376    2.1661   49.5965 H       1  ZINC000265786263    0.1200
     47 H47        -1.8416    1.1072   49.2569 H       1  ZINC000265786263    0.1300
     48 H48         0.1382    1.9694   50.4377 H       1  ZINC000265786263    0.1300
     49 H49        -0.0397    4.7530   52.6707 H       1  ZINC000265786263    0.3900
     50 H50        -2.2824    4.9610   52.2969 H       1  ZINC000265786263    0.1300
     51 H51        -4.6775    1.8795   52.2101 H       1  ZINC000265786263    0.1000
     52 H52        -5.9674    2.7896   53.0334 H       1  ZINC000265786263    0.0400
     53 H53        -6.7454    0.5079   52.6692 H       1  ZINC000265786263    0.1000
     54 H54        -6.3310    0.6052   50.9373 H       1  ZINC000265786263    0.0800
@<TRIPOS>BOND
     1     1     2    1
     2     1    29    1
     3     1    30    1
     4     1    31    1
     5     2    27    1
     6     2     3    1
     7     2     6    1
     8     3     5    1
     9     3     4    1
    10     3    32    1
    11     4     5    1
    12     4    33    1
    13     4    34    1
    14     5    35    1
    15     5    36    1
    16     6     7   am
    17     6    37    1
    18     7     8    2
    19     7     9   am
    20     9    10    1
    21     9    27   am
    22    10    11    1
    23    10    38    1
    24    10    39    1
    25    11    12    2
    26    11    13   am
    27    13    26    1
    28    13    14    1
    29    14    15    1
    30    14    40    1
    31    14    41    1
    32    15    16    1
    33    15    42    1
    34    15    43    1
    35    16    17    1
    36    16    25    1
    37    17    18    1
    38    17    44    1
    39    17    45    1
    40    18    24   ar
    41    18    19   ar
    42    19    20   ar
    43    19    46    1
    44    20    21   ar
    45    20    47    1
    46    21    22   ar
    47    21    48    1
    48    22    23    1
    49    22    24   ar
    50    23    49    1
    51    24    50    1
    52    25    26    1
    53    25    51    1
    54    25    52    1
    55    26    53    1
    56    26    54    1
    57    27    28    2
@<TRIPOS>SUBSTRUCTURE
     1 ZINC000265786263        1 TEMP              0 ****  ****    0 ROOT


##########                                Name:    ZINC000572148596
##########                DOCK_Rotatable_Bonds:                   4
##########                         Heavy_Atoms:                  26
##########                    Molecular_Weight:             371.463
##########                DOCK_Rotatable_Bonds:                   4
##########                       Formal_Charge:          -0.0199999
##########                     HBond_Acceptors:                   8
##########                        HBond_Donors:                   0
##########                         Heavy_Atoms:                  26
##########                          Grid_Score:          -32.041046
##########                     Grid_vdw_energy:          -32.594738
##########                      Grid_es_energy:            0.553693
##########           Internal_energy_repulsive:            7.152444

@<TRIPOS>MOLECULE
ZINC000572148596
 47 50 1 0 0
SMALL
USER_CHARGES


@<TRIPOS>ATOM
      1 C1        -14.1113   -1.6361   55.1009 C.3     1  ZINC000572148596   -0.1400
      2 C2        -12.9236   -2.5928   55.2240 C.3     1  ZINC000572148596    0.0800
      3 H3        -13.2441   -3.6040   54.9730 H       1  ZINC000572148596    0.1200
      4 C4        -11.8319   -2.1626   54.2785 C.2     1  ZINC000572148596    0.1800
      5 N5        -11.4845   -2.7675   53.1809 N.2     1  ZINC000572148596   -0.3500
      6 O6        -10.5737   -2.1767   52.6403 O.3     1  ZINC000572148596    0.0900
      7 C7        -10.2397   -1.0984   53.3666 C.2     1  ZINC000572148596    0.2300
      8 C8         -9.1820   -0.1173   53.0536 C.ar    1  ZINC000572148596   -0.1200
      9 C9         -8.8970    0.9293   53.9426 C.ar    1  ZINC000572148596   -0.0100
     10 C10        -7.9075    1.8164   53.6117 C.ar    1  ZINC000572148596   -0.1900
     11 C11        -7.2183    1.6553   52.4119 C.ar    1  ZINC000572148596    0.3400
     12 N12        -6.2158    2.5512   52.0740 N.3     1  ZINC000572148596   -0.4700
     13 C13        -6.7636    3.8984   51.8586 C.3     1  ZINC000572148596    0.0300
     14 C14        -5.6183    4.8654   51.5471 C.3     1  ZINC000572148596    0.0900
     15 H15        -6.0248    5.8534   51.3307 H       1  ZINC000572148596    0.1100
     16 C16        -4.6804    4.9519   52.7529 C.3     1  ZINC000572148596   -0.1800
     17 O17        -4.8935    4.3877   50.4106 O.3     1  ZINC000572148596   -0.3700
     18 C18        -4.3455    3.0784   50.5859 C.3     1  ZINC000572148596    0.0800
     19 H19        -3.6399    3.0875   51.4166 H       1  ZINC000572148596    0.0700
     20 C20        -3.6230    2.6515   49.3066 C.3     1  ZINC000572148596   -0.1400
     21 C21        -5.4779    2.0933   50.8877 C.3     1  ZINC000572148596    0.0300
     22 N22        -7.5074    0.6568   51.5890 N.ar    1  ZINC000572148596   -0.5200
     23 C23        -8.4473   -0.2213   51.8718 C.ar    1  ZINC000572148596    0.1900
     24 N24       -11.0467   -1.0829   54.4137 N.2     1  ZINC000572148596   -0.4700
     25 C25       -12.4027   -2.5676   56.6378 C.2     1  ZINC000572148596    0.0400
     26 N26       -11.2070   -2.9006   56.9904 N.2     1  ZINC000572148596   -0.4500
     27 C27       -10.9140   -2.8197   58.2726 C.2     1  ZINC000572148596    0.0400
     28 C28       -11.9187   -2.3948   59.0448 C.2     1  ZINC000572148596   -0.2500
     29 S29       -13.3081   -2.0866   58.0061 S.3     1  ZINC000572148596    0.1400
     30 H30       -13.7909   -0.6250   55.3520 H       1  ZINC000572148596    0.0800
     31 H31       -14.4882   -1.6545   54.0784 H       1  ZINC000572148596    0.0700
     32 H32       -14.9010   -1.9474   55.7848 H       1  ZINC000572148596    0.0800
     33 H33        -9.4456    1.0335   54.8670 H       1  ZINC000572148596    0.1500
     34 H34        -7.6641    2.6336   54.2745 H       1  ZINC000572148596    0.1500
     35 H35        -7.4609    3.8782   51.0211 H       1  ZINC000572148596    0.0600
     36 H36        -7.2836    4.2278   52.7582 H       1  ZINC000572148596    0.1000
     37 H37        -4.2730    3.9640   52.9679 H       1  ZINC000572148596    0.0700
     38 H38        -3.8652    5.6405   52.5305 H       1  ZINC000572148596    0.0600
     39 H39        -5.2347    5.3127   53.6193 H       1  ZINC000572148596    0.0700
     40 H40        -2.8194    3.3555   49.0910 H       1  ZINC000572148596    0.0700
     41 H41        -3.2056    1.6536   49.4408 H       1  ZINC000572148596    0.0700
     42 H42        -4.3294    2.6412   48.4765 H       1  ZINC000572148596    0.0600
     43 H43        -5.0594    1.1051   51.0784 H       1  ZINC000572148596    0.1000
     44 H44        -6.1546    2.0443   50.0346 H       1  ZINC000572148596    0.0600
     45 H45        -8.6576   -1.0229   51.1792 H       1  ZINC000572148596    0.1700
     46 H46        -9.9420   -3.0761   58.6672 H       1  ZINC000572148596    0.1800
     47 H47       -11.8838   -2.2605   60.1159 H       1  ZINC000572148596    0.1800
@<TRIPOS>BOND
     1     1     2    1
     2     1    30    1
     3     1    31    1
     4     1    32    1
     5     2     3    1
     6     2     4    1
     7     2    25    1
     8     4    24    1
     9     4     5    2
    10     5     6    1
    11     6     7    1
    12     7     8    1
    13     7    24    2
    14     8    23   ar
    15     8     9   ar
    16     9    10   ar
    17     9    33    1
    18    10    11   ar
    19    10    34    1
    20    11    12    1
    21    11    22   ar
    22    12    21    1
    23    12    13    1
    24    13    14    1
    25    13    35    1
    26    13    36    1
    27    14    15    1
    28    14    16    1
    29    14    17    1
    30    16    37    1
    31    16    38    1
    32    16    39    1
    33    17    18    1
    34    18    19    1
    35    18    20    1
    36    18    21    1
    37    20    40    1
    38    20    41    1
    39    20    42    1
    40    21    43    1
    41    21    44    1
    42    22    23   ar
    43    23    45    1
    44    25    29    1
    45    25    26    2
    46    26    27    1
    47    27    28    2
    48    27    46    1
    49    28    29    1
    50    28    47    1
@<TRIPOS>SUBSTRUCTURE
     1 ZINC000572148596        1 TEMP              0 ****  ****    0 ROOT


##########                                Name:    ZINC000766421809
##########                DOCK_Rotatable_Bonds:                   7
##########                         Heavy_Atoms:                  26
##########                    Molecular_Weight:             358.372
##########                DOCK_Rotatable_Bonds:                   7
##########                       Formal_Charge:         4.61936e-07
##########                     HBond_Acceptors:                   8
##########                        HBond_Donors:                   0
##########                         Heavy_Atoms:                  26
##########                          Grid_Score:          -32.038494
##########                     Grid_vdw_energy:          -32.269005
##########                      Grid_es_energy:            0.230510
##########           Internal_energy_repulsive:            5.645949

@<TRIPOS>MOLECULE
ZINC000766421809
 45 47 1 0 0
SMALL
USER_CHARGES


@<TRIPOS>ATOM
      1 C1        -15.9951   -2.9367   60.1183 C.3     1  ZINC000766421809   -0.0700
      2 C2        -15.4639   -3.3651   58.7746 C.2     1  ZINC000766421809    0.0700
      3 N3        -15.4343   -4.5902   58.3165 N.2     1  ZINC000766421809   -0.2900
      4 N4        -14.8676   -4.5650   57.0357 N.pl3   1  ZINC000766421809   -0.3700
      5 C5        -14.6483   -5.7243   56.1673 C.3     1  ZINC000766421809    0.1000
      6 C6        -14.5593   -3.2842   56.7430 C.2     1  ZINC000766421809    0.0700
      7 C7        -13.9288   -2.7916   55.4660 C.3     1  ZINC000766421809    0.1400
      8 O8        -12.5394   -3.2105   55.4193 O.3     1  ZINC000766421809   -0.3400
      9 C9        -11.6106   -2.2667   55.6397 C.2     1  ZINC000766421809    0.4700
     10 O10       -10.8525   -1.9468   54.7550 O.2     1  ZINC000766421809   -0.5000
     11 C11       -11.5136   -1.6061   56.9908 C.3     1  ZINC000766421809   -0.1100
     12 C12       -11.1130   -2.6460   58.0393 C.3     1  ZINC000766421809   -0.0200
     13 C13       -10.3932   -1.9638   59.1739 C.2     1  ZINC000766421809    0.1900
     14 N14       -10.9440   -1.4299   60.2355 N.2     1  ZINC000766421809   -0.4700
     15 C15        -9.9190   -0.9408   60.9696 C.2     1  ZINC000766421809    0.2200
     16 C16       -10.0249   -0.2377   62.2719 C.ar    1  ZINC000766421809   -0.0300
     17 C17        -8.8789    0.0224   63.0206 C.ar    1  ZINC000766421809   -0.0500
     18 C18        -8.9817    0.6768   64.2310 C.ar    1  ZINC000766421809   -0.1500
     19 C19       -10.2223    1.0747   64.7022 C.ar    1  ZINC000766421809    0.1200
     20 F20       -10.3187    1.7149   65.8880 F       1  ZINC000766421809   -0.1300
     21 C21       -11.3646    0.8185   63.9606 C.ar    1  ZINC000766421809   -0.1200
     22 C22       -12.7112    1.2545   64.4779 C.3     1  ZINC000766421809   -0.1200
     23 C23       -11.2702    0.1694   62.7471 C.ar    1  ZINC000766421809   -0.0600
     24 N24        -8.8167   -1.2040   60.3167 N.2     1  ZINC000766421809   -0.3700
     25 O25        -9.0722   -1.7950   59.2888 O.3     1  ZINC000766421809    0.0900
     26 C26       -14.9229   -2.5208   57.7994 C.2     1  ZINC000766421809   -0.2400
     27 H27       -17.0573   -2.7077   60.0328 H       1  ZINC000766421809    0.0800
     28 H28       -15.8540   -3.7425   60.8386 H       1  ZINC000766421809    0.0700
     29 H29       -15.4582   -2.0499   60.4553 H       1  ZINC000766421809    0.0800
     30 H30       -15.5271   -5.8813   55.5420 H       1  ZINC000766421809    0.0800
     31 H31       -13.7792   -5.5449   55.5342 H       1  ZINC000766421809    0.0900
     32 H32       -14.4752   -6.6094   56.7795 H       1  ZINC000766421809    0.0900
     33 H33       -14.4630   -3.2090   54.6125 H       1  ZINC000766421809    0.0900
     34 H34       -13.9817   -1.7035   55.4309 H       1  ZINC000766421809    0.0900
     35 H35       -10.7626   -0.8169   56.9564 H       1  ZINC000766421809    0.1200
     36 H36       -12.4800   -1.1769   57.2556 H       1  ZINC000766421809    0.1200
     37 H37       -12.0065   -3.1402   58.4207 H       1  ZINC000766421809    0.1200
     38 H38       -10.4548   -3.3860   57.5840 H       1  ZINC000766421809    0.1200
     39 H39        -7.9114   -0.2881   62.6542 H       1  ZINC000766421809    0.1500
     40 H40        -8.0940    0.8789   64.8119 H       1  ZINC000766421809    0.1500
     41 H41       -12.9275    2.2624   64.1237 H       1  ZINC000766421809    0.0800
     42 H42       -13.4785    0.5699   64.1163 H       1  ZINC000766421809    0.0800
     43 H43       -12.7016    1.2467   65.5678 H       1  ZINC000766421809    0.0700
     44 H44       -12.1609   -0.0300   62.1697 H       1  ZINC000766421809    0.1400
     45 H45       -14.8097   -1.4496   57.8782 H       1  ZINC000766421809    0.1500
@<TRIPOS>BOND
     1     1     2    1
     2     1    27    1
     3     1    28    1
     4     1    29    1
     5     2    26    1
     6     2     3    2
     7     3     4    1
     8     4     5    1
     9     4     6    1
    10     5    30    1
    11     5    31    1
    12     5    32    1
    13     6     7    1
    14     6    26    2
    15     7     8    1
    16     7    33    1
    17     7    34    1
    18     8     9    1
    19     9    10    2
    20     9    11    1
    21    11    12    1
    22    11    35    1
    23    11    36    1
    24    12    13    1
    25    12    37    1
    26    12    38    1
    27    13    25    1
    28    13    14    2
    29    14    15    1
    30    15    16    1
    31    15    24    2
    32    16    23   ar
    33    16    17   ar
    34    17    18   ar
    35    17    39    1
    36    18    19   ar
    37    18    40    1
    38    19    20    1
    39    19    21   ar
    40    21    22    1
    41    21    23   ar
    42    22    41    1
    43    22    42    1
    44    22    43    1
    45    23    44    1
    46    24    25    1
    47    26    45    1
@<TRIPOS>SUBSTRUCTURE
     1 ZINC000766421809        1 TEMP              0 ****  ****    0 ROOT


##########                                Name:    ZINC000562561773
##########                DOCK_Rotatable_Bonds:                   6
##########                         Heavy_Atoms:                  26
##########                    Molecular_Weight:             371.466
##########                DOCK_Rotatable_Bonds:                   6
##########                       Formal_Charge:           0.0199999
##########                     HBond_Acceptors:                   9
##########                        HBond_Donors:                   0
##########                         Heavy_Atoms:                  26
##########                          Grid_Score:          -32.032845
##########                     Grid_vdw_energy:          -31.029238
##########                      Grid_es_energy:           -1.003605
##########           Internal_energy_repulsive:           10.603679

@<TRIPOS>MOLECULE
ZINC000562561773
 47 50 1 0 0
SMALL
USER_CHARGES


@<TRIPOS>ATOM
      1 C1         -7.7529    1.4451   51.7667 C.3     1  ZINC000562561773   -0.1100
      2 C2         -8.1731    1.3671   53.2119 C.ar    1  ZINC000562561773   -0.0400
      3 C3         -7.3644    1.9047   54.1947 C.ar    1  ZINC000562561773   -0.1200
      4 C4         -7.7438    1.8365   55.5207 C.ar    1  ZINC000562561773   -0.0700
      5 C5         -8.9452    1.2241   55.8716 C.ar    1  ZINC000562561773   -0.0300
      6 C6         -9.3543    1.1505   57.2965 C.2     1  ZINC000562561773    0.2200
      7 N7         -8.8965    1.8876   58.2747 N.2     1  ZINC000562561773   -0.3700
      8 O8         -9.4349    1.5788   59.3166 O.3     1  ZINC000562561773    0.0900
      9 C9        -10.3104    0.5913   59.1044 C.2     1  ZINC000562561773    0.1900
     10 C10       -11.1806   -0.0716   60.1409 C.3     1  ZINC000562561773   -0.0100
     11 C11       -10.9665   -1.5857   60.0939 C.3     1  ZINC000562561773   -0.1200
     12 S12       -12.1183   -2.3214   58.9072 S.3     1  ZINC000562561773    0.0600
     13 C13       -13.5393   -2.5040   59.9329 C.2     1  ZINC000562561773    0.2100
     14 N14       -13.6657   -2.0879   61.1744 N.2     1  ZINC000562561773   -0.3300
     15 N15       -14.8296   -2.3817   61.6308 N.2     1  ZINC000562561773   -0.0300
     16 N16       -15.5211   -2.9959   60.7329 N.2     1  ZINC000562561773   -0.0700
     17 N17       -14.7087   -3.0940   59.5898 N.pl3   1  ZINC000562561773   -0.3600
     18 C18       -15.0507   -3.7104   58.3056 C.3     1  ZINC000562561773    0.0800
     19 N19       -10.2747    0.3127   57.8251 N.2     1  ZINC000562561773   -0.4600
     20 C20        -9.7611    0.6819   54.8824 C.ar    1  ZINC000562561773   -0.1100
     21 C21        -9.3760    0.7594   53.5522 C.ar    1  ZINC000562561773    0.0800
     22 N22       -10.1915    0.2173   52.5559 N.3     1  ZINC000562561773   -0.4800
     23 C23       -10.4099   -1.2349   52.7785 C.3     1  ZINC000562561773    0.0400
     24 C24       -11.6899   -1.5310   51.9572 C.3     1  ZINC000562561773   -0.1200
     25 C25       -12.5414   -0.2590   52.1735 C.3     1  ZINC000562561773   -0.1300
     26 C26       -11.5352    0.8350   52.5764 C.3     1  ZINC000562561773    0.0400
     27 H27        -8.1336    2.3669   51.3269 H       1  ZINC000562561773    0.0700
     28 H28        -6.6648    1.4349   51.7037 H       1  ZINC000562561773    0.0600
     29 H29        -8.1564    0.5900   51.2243 H       1  ZINC000562561773    0.0800
     30 H30        -6.4325    2.3795   53.9250 H       1  ZINC000562561773    0.1400
     31 H31        -7.1087    2.2576   56.2861 H       1  ZINC000562561773    0.1400
     32 H32       -10.9164    0.3023   61.1301 H       1  ZINC000562561773    0.1200
     33 H33       -12.2269    0.1540   59.9350 H       1  ZINC000562561773    0.1300
     34 H34        -9.9427   -1.7986   59.7863 H       1  ZINC000562561773    0.1100
     35 H35       -11.1442   -2.0087   61.0826 H       1  ZINC000562561773    0.1100
     36 H36       -15.4994   -2.9627   57.6517 H       1  ZINC000562561773    0.1000
     37 H37       -14.1477   -4.1052   57.8400 H       1  ZINC000562561773    0.1000
     38 H38       -15.7596   -4.5220   58.4695 H       1  ZINC000562561773    0.1100
     39 H39       -10.6931    0.2061   55.1496 H       1  ZINC000562561773    0.1300
     40 H40        -9.5673   -1.8133   52.3997 H       1  ZINC000562561773    0.0900
     41 H41       -10.5752   -1.4414   53.8360 H       1  ZINC000562561773    0.0500
     42 H42       -11.4497   -1.6594   50.9017 H       1  ZINC000562561773    0.0800
     43 H43       -12.2035   -2.4099   52.3466 H       1  ZINC000562561773    0.0700
     44 H44       -13.0507    0.0170   51.2501 H       1  ZINC000562561773    0.0800
     45 H45       -13.2655   -0.4198   52.9724 H       1  ZINC000562561773    0.0700
     46 H46       -11.7621    1.1971   53.5792 H       1  ZINC000562561773    0.0500
     47 H47       -11.5764    1.6582   51.8632 H       1  ZINC000562561773    0.0800
@<TRIPOS>BOND
     1     1     2    1
     2     1    27    1
     3     1    28    1
     4     1    29    1
     5     2    21   ar
     6     2     3   ar
     7     3     4   ar
     8     3    30    1
     9     4     5   ar
    10     4    31    1
    11     5     6    1
    12     5    20   ar
    13     6    19    1
    14     6     7    2
    15     7     8    1
    16     8     9    1
    17     9    10    1
    18     9    19    2
    19    10    11    1
    20    10    32    1
    21    10    33    1
    22    11    12    1
    23    11    34    1
    24    11    35    1
    25    12    13    1
    26    13    17    1
    27    13    14    2
    28    14    15    1
    29    15    16    2
    30    16    17    1
    31    17    18    1
    32    18    36    1
    33    18    37    1
    34    18    38    1
    35    20    21   ar
    36    20    39    1
    37    21    22    1
    38    22    26    1
    39    22    23    1
    40    23    24    1
    41    23    40    1
    42    23    41    1
    43    24    25    1
    44    24    42    1
    45    24    43    1
    46    25    26    1
    47    25    44    1
    48    25    45    1
    49    26    46    1
    50    26    47    1
@<TRIPOS>SUBSTRUCTURE
     1 ZINC000562561773        1 TEMP              0 ****  ****    0 ROOT


##########                                Name:    ZINC000564088286
##########                DOCK_Rotatable_Bonds:                   6
##########                         Heavy_Atoms:                  25
##########                    Molecular_Weight:             398.934
##########                DOCK_Rotatable_Bonds:                   6
##########                       Formal_Charge:               -0.05
##########                     HBond_Acceptors:                   8
##########                        HBond_Donors:                   1
##########                         Heavy_Atoms:                  25
##########                          Grid_Score:          -32.015995
##########                     Grid_vdw_energy:          -32.011322
##########                      Grid_es_energy:           -0.004674
##########           Internal_energy_repulsive:           11.202044

@<TRIPOS>MOLECULE
ZINC000564088286
 44 46 1 0 0
SMALL
USER_CHARGES


@<TRIPOS>ATOM
      1 C1         -2.7921    4.5033   52.7626 C.3     1  ZINC000564088286   -0.1600
      2 C2         -4.2529    4.4005   52.3191 C.3     1  ZINC000564088286    0.1100
      3 N3         -4.3106    4.2174   50.8668 N.am    1  ZINC000564088286   -1.1200
      4 S4         -4.3422    2.6909   50.2254 S.o2    1  ZINC000564088286    2.7000
      5 O5         -4.5498    2.8470   48.8283 O.2     1  ZINC000564088286   -0.9600
      6 O6         -3.2264    2.0023   50.7732 O.2     1  ZINC000564088286   -0.9600
      7 C7         -5.7795    1.8900   50.8555 C.ar    1  ZINC000564088286   -0.6800
      8 C8         -5.6663    0.6703   51.4963 C.ar    1  ZINC000564088286   -0.0200
      9 C9         -6.7939    0.0420   51.9907 C.ar    1  ZINC000564088286   -0.1300
     10 C10        -8.0349    0.6335   51.8447 C.ar    1  ZINC000564088286   -0.0100
     11 C11        -9.2642   -0.0518   52.3832 C.3     1  ZINC000564088286   -0.1100
     12 C12        -9.5229    0.4151   53.7925 C.2     1  ZINC000564088286    0.5200
     13 O13        -8.8110    1.2608   54.2914 O.2     1  ZINC000564088286   -0.5200
     14 N14       -10.5454   -0.1070   54.4984 N.am    1  ZINC000564088286   -0.6200
     15 C15       -11.4208   -1.1333   53.9125 C.3     1  ZINC000564088286    0.1200
     16 C16       -11.2396   -2.4357   54.6983 C.3     1  ZINC000564088286   -0.0700
     17 C17       -11.2622   -2.1268   56.1803 C.2     1  ZINC000564088286   -0.1600
     18 C18       -11.0689   -0.9088   56.7199 C.2     1  ZINC000564088286   -0.1200
     19 C19       -11.1300   -0.8940   58.1102 C.2     1  ZINC000564088286   -0.1100
     20 C20       -11.3741   -2.0674   58.6878 C.2     1  ZINC000564088286   -0.1500
     21 Cl21      -11.5048   -2.3332   60.3983 Cl      1  ZINC000564088286   -0.0100
     22 S22       -11.5443   -3.3068   57.4540 S.3     1  ZINC000564088286    0.1600
     23 C23       -10.8112    0.3298   55.8764 C.3     1  ZINC000564088286    0.1700
     24 C24        -8.1479    1.8537   51.2051 C.ar    1  ZINC000564088286   -0.1300
     25 C25        -7.0198    2.4840   50.7142 C.ar    1  ZINC000564088286   -0.0200
     26 H26        -2.2646    3.5891   52.4904 H       1  ZINC000564088286    0.0600
     27 H27        -2.3220    5.3544   52.2701 H       1  ZINC000564088286    0.0600
     28 H28        -2.7492    4.6395   53.8432 H       1  ZINC000564088286    0.0700
     29 H29        -4.7230    3.5493   52.8117 H       1  ZINC000564088286    0.0800
     30 H30        -4.7804    5.3147   52.5914 H       1  ZINC000564088286    0.0700
     31 H31        -4.3303    4.9901   50.2809 H       1  ZINC000564088286    0.4200
     32 H32        -4.6968    0.2083   51.6104 H       1  ZINC000564088286    0.1400
     33 H33        -6.7055   -0.9112   52.4907 H       1  ZINC000564088286    0.1300
     34 H34       -10.1212    0.1937   51.7561 H       1  ZINC000564088286    0.1100
     35 H35        -9.1093   -1.1308   52.3807 H       1  ZINC000564088286    0.1100
     36 H36       -12.4593   -0.8086   53.9766 H       1  ZINC000564088286    0.0800
     37 H37       -11.1486   -1.2943   52.8694 H       1  ZINC000564088286    0.1100
     38 H38       -12.0506   -3.1229   54.4568 H       1  ZINC000564088286    0.0900
     39 H39       -10.2845   -2.8904   54.4352 H       1  ZINC000564088286    0.0900
     40 H40       -10.9883    0.0106   58.6829 H       1  ZINC000564088286    0.1500
     41 H41        -9.9493    0.8702   56.2676 H       1  ZINC000564088286    0.1000
     42 H42       -11.6896    0.9751   55.8900 H       1  ZINC000564088286    0.0900
     43 H43        -9.1173    2.3159   51.0915 H       1  ZINC000564088286    0.1300
     44 H44        -7.1081    3.4373   50.2145 H       1  ZINC000564088286    0.1400
@<TRIPOS>BOND
     1     1     2    1
     2     1    26    1
     3     1    27    1
     4     1    28    1
     5     2     3    1
     6     2    29    1
     7     2    30    1
     8     3     4   am
     9     3    31    1
    10     4     5    2
    11     4     6    2
    12     4     7    1
    13     7    25   ar
    14     7     8   ar
    15     8     9   ar
    16     8    32    1
    17     9    10   ar
    18     9    33    1
    19    10    11    1
    20    10    24   ar
    21    11    12    1
    22    11    34    1
    23    11    35    1
    24    12    13    2
    25    12    14   am
    26    14    23    1
    27    14    15    1
    28    15    16    1
    29    15    36    1
    30    15    37    1
    31    16    17    1
    32    16    38    1
    33    16    39    1
    34    17    22    1
    35    17    18    2
    36    18    19    1
    37    18    23    1
    38    19    20    2
    39    19    40    1
    40    20    21    1
    41    20    22    1
    42    23    41    1
    43    23    42    1
    44    24    25   ar
    45    24    43    1
    46    25    44    1
@<TRIPOS>SUBSTRUCTURE
     1 ZINC000564088286        1 TEMP              0 ****  ****    0 ROOT


##########                                Name:    ZINC000790205345
##########                DOCK_Rotatable_Bonds:                   7
##########                         Heavy_Atoms:                  28
##########                    Molecular_Weight:             382.459
##########                DOCK_Rotatable_Bonds:                   7
##########                       Formal_Charge:          -0.0299997
##########                     HBond_Acceptors:                   6
##########                        HBond_Donors:                   0
##########                         Heavy_Atoms:                  28
##########                          Grid_Score:          -31.973497
##########                     Grid_vdw_energy:          -31.508078
##########                      Grid_es_energy:           -0.465420
##########           Internal_energy_repulsive:           22.375769

@<TRIPOS>MOLECULE
ZINC000790205345
 54 56 1 0 0
SMALL
USER_CHARGES


@<TRIPOS>ATOM
      1 C1         -4.8933    3.4132   50.3694 C.3     1  ZINC000790205345   -0.1100
      2 C2         -5.9429    2.4411   50.8433 C.ar    1  ZINC000790205345   -0.1300
      3 C3         -5.5675    1.2012   51.3255 C.ar    1  ZINC000790205345   -0.0800
      4 C4         -6.5277    0.3083   51.7610 C.ar    1  ZINC000790205345   -0.2100
      5 C5         -7.8695    0.6570   51.7140 C.ar    1  ZINC000790205345    0.1300
      6 O6         -8.8160   -0.2193   52.1422 O.3     1  ZINC000790205345   -0.2900
      7 C7         -9.6862    0.2245   53.1852 C.3     1  ZINC000790205345    0.0400
      8 C8        -10.7315   -0.8286   53.4493 C.2     1  ZINC000790205345    0.5200
      9 O9        -10.5792   -1.9542   53.0242 O.2     1  ZINC000790205345   -0.5100
     10 N10       -11.8354   -0.5195   54.1579 N.am    1  ZINC000790205345   -0.6100
     11 C11       -12.0203    0.8407   54.6698 C.3     1  ZINC000790205345    0.0700
     12 C12       -12.8507   -1.5436   54.4161 C.3     1  ZINC000790205345    0.1800
     13 H13       -12.6234   -2.4358   53.8325 H       1  ZINC000790205345    0.1200
     14 C14       -14.2273   -1.0093   54.0158 C.3     1  ZINC000790205345   -0.1600
     15 C15       -12.8532   -1.8899   55.8828 C.ar    1  ZINC000790205345   -0.0700
     16 C16       -13.9572   -2.5031   56.4456 C.ar    1  ZINC000790205345   -0.1300
     17 C17       -13.9636   -2.8220   57.7914 C.ar    1  ZINC000790205345   -0.0900
     18 C18       -12.8664   -2.5292   58.5770 C.ar    1  ZINC000790205345   -0.1500
     19 C19       -11.7557   -1.9137   58.0146 C.ar    1  ZINC000790205345    0.1800
     20 N20       -10.6421   -1.6159   58.8082 N.am    1  ZINC000790205345   -0.5700
     21 C21       -10.0669   -2.4935   59.8390 C.3     1  ZINC000790205345    0.0600
     22 C22        -8.8775   -1.6830   60.3890 C.3     1  ZINC000790205345    0.0400
     23 O23        -8.9067   -0.4466   59.6187 O.3     1  ZINC000790205345   -0.3200
     24 C24        -9.9222   -0.4871   58.7488 C.2     1  ZINC000790205345    0.6400
     25 O25       -10.1740    0.4202   57.9806 O.2     1  ZINC000790205345   -0.5000
     26 C26       -11.7504   -1.5994   56.6622 C.ar    1  ZINC000790205345   -0.1400
     27 C27        -8.2438    1.9022   51.2295 C.ar    1  ZINC000790205345   -0.1500
     28 C28        -7.2796    2.7932   50.8004 C.ar    1  ZINC000790205345   -0.0500
     29 C29        -7.6852    4.1460   50.2745 C.3     1  ZINC000790205345   -0.1200
     30 H30        -4.5692    4.0337   51.2049 H       1  ZINC000790205345    0.0700
     31 H31        -4.0403    2.8623   49.9733 H       1  ZINC000790205345    0.0600
     32 H32        -5.3116    4.0467   49.5872 H       1  ZINC000790205345    0.0700
     33 H33        -4.5227    0.9299   51.3615 H       1  ZINC000790205345    0.1300
     34 H34        -6.2340   -0.6605   52.1372 H       1  ZINC000790205345    0.1300
     35 H35        -9.1074    0.3974   54.0925 H       1  ZINC000790205345    0.1000
     36 H36       -10.1730    1.1516   52.8825 H       1  ZINC000790205345    0.0900
     37 H37       -12.4589    1.4653   53.8917 H       1  ZINC000790205345    0.0600
     38 H38       -12.6844    0.8165   55.5338 H       1  ZINC000790205345    0.0800
     39 H39       -11.0551    1.2521   54.9649 H       1  ZINC000790205345    0.0700
     40 H40       -14.4546   -0.1172   54.5994 H       1  ZINC000790205345    0.0600
     41 H41       -14.2256   -0.7590   52.9550 H       1  ZINC000790205345    0.0700
     42 H42       -14.9827   -1.7714   54.2079 H       1  ZINC000790205345    0.0800
     43 H43       -14.8165   -2.7332   55.8332 H       1  ZINC000790205345    0.1300
     44 H44       -14.8277   -3.3004   58.2282 H       1  ZINC000790205345    0.1300
     45 H45       -12.8722   -2.7782   59.6280 H       1  ZINC000790205345    0.1300
     46 H46       -10.7950   -2.6873   60.6265 H       1  ZINC000790205345    0.1000
     47 H47        -9.7216   -3.4281   59.3969 H       1  ZINC000790205345    0.1000
     48 H48        -9.0148   -1.4752   61.4502 H       1  ZINC000790205345    0.1100
     49 H49        -7.9416   -2.2158   60.2209 H       1  ZINC000790205345    0.1100
     50 H50       -10.8880   -1.1210   56.2217 H       1  ZINC000790205345    0.1600
     51 H51        -9.2878    2.1760   51.1917 H       1  ZINC000790205345    0.1300
     52 H52        -7.7191    4.8603   51.0971 H       1  ZINC000790205345    0.0700
     53 H53        -6.9596    4.4801   49.5329 H       1  ZINC000790205345    0.0700
     54 H54        -8.6704    4.0760   49.8133 H       1  ZINC000790205345    0.0700
@<TRIPOS>BOND
     1     1     2    1
     2     1    30    1
     3     1    31    1
     4     1    32    1
     5     2    28   ar
     6     2     3   ar
     7     3     4   ar
     8     3    33    1
     9     4     5   ar
    10     4    34    1
    11     5     6    1
    12     5    27   ar
    13     6     7    1
    14     7     8    1
    15     7    35    1
    16     7    36    1
    17     8     9    2
    18     8    10   am
    19    10    11    1
    20    10    12    1
    21    11    37    1
    22    11    38    1
    23    11    39    1
    24    12    13    1
    25    12    14    1
    26    12    15    1
    27    14    40    1
    28    14    41    1
    29    14    42    1
    30    15    26   ar
    31    15    16   ar
    32    16    17   ar
    33    16    43    1
    34    17    18   ar
    35    17    44    1
    36    18    19   ar
    37    18    45    1
    38    19    20    1
    39    19    26   ar
    40    20    24   am
    41    20    21    1
    42    21    22    1
    43    21    46    1
    44    21    47    1
    45    22    23    1
    46    22    48    1
    47    22    49    1
    48    23    24    1
    49    24    25    2
    50    26    50    1
    51    27    28   ar
    52    27    51    1
    53    28    29    1
    54    29    52    1
    55    29    53    1
    56    29    54    1
@<TRIPOS>SUBSTRUCTURE
     1 ZINC000790205345        1 TEMP              0 ****  ****    0 ROOT


##########                                Name:    ZINC000952280524
##########                DOCK_Rotatable_Bonds:                   9
##########                         Heavy_Atoms:                  25
##########                    Molecular_Weight:             348.486
##########                DOCK_Rotatable_Bonds:                   9
##########                       Formal_Charge:          -0.0100004
##########                     HBond_Acceptors:                   5
##########                        HBond_Donors:                   1
##########                         Heavy_Atoms:                  25
##########                          Grid_Score:          -31.972887
##########                     Grid_vdw_energy:          -31.439049
##########                      Grid_es_energy:           -0.533839
##########           Internal_energy_repulsive:           21.151747

@<TRIPOS>MOLECULE
ZINC000952280524
 57 59 1 0 0
SMALL
USER_CHARGES


@<TRIPOS>ATOM
      1 C1        -14.6107   -0.7090   62.0682 C.3     1  ZINC000952280524   -0.1800
      2 C2        -14.3561   -1.8547   61.0868 C.3     1  ZINC000952280524    0.1400
      3 C3        -12.9257   -1.7601   60.5522 C.3     1  ZINC000952280524   -0.1900
      4 O4        -14.5323   -3.1043   61.7572 O.3     1  ZINC000952280524   -0.5500
      5 C5        -15.3434   -1.7573   59.9219 C.3     1  ZINC000952280524   -0.1200
      6 C6        -15.4222   -3.0873   59.2177 C.2     1  ZINC000952280524    0.5300
      7 O7        -16.0115   -4.0130   59.7342 O.2     1  ZINC000952280524   -0.5100
      8 N8        -14.8378   -3.2482   58.0140 N.am    1  ZINC000952280524   -0.6300
      9 C9        -14.8374   -4.4856   57.2200 C.3     1  ZINC000952280524    0.1000
     10 C10       -14.0291   -4.2057   55.9356 C.3     1  ZINC000952280524   -0.1300
     11 C11       -13.1417   -2.9987   56.3396 C.3     1  ZINC000952280524   -0.1000
     12 H12       -12.2524   -3.3297   56.8760 H       1  ZINC000952280524    0.0900
     13 C13       -12.7610   -2.1638   55.1152 C.3     1  ZINC000952280524   -0.0700
     14 C14       -11.9970   -0.9168   55.5660 C.3     1  ZINC000952280524   -0.1300
     15 C15       -11.6477   -0.0661   54.3408 C.3     1  ZINC000952280524    0.1100
     16 N16       -10.9214   -0.9027   53.3757 N.am    1  ZINC000952280524   -0.6100
     17 C17        -9.7230   -0.5150   52.8961 C.2     1  ZINC000952280524    0.5500
     18 O18        -9.1317   -1.2163   52.0977 O.2     1  ZINC000952280524   -0.5500
     19 C19        -9.1303    0.7566   53.3385 C.2     1  ZINC000952280524   -0.2200
     20 C20        -8.7188    1.6466   52.4400 C.2     1  ZINC000952280524   -0.0300
     21 C21        -8.1132    2.9500   52.8932 C.3     1  ZINC000952280524   -0.1500
     22 C22        -6.9335    3.4985   52.0881 C.3     1  ZINC000952280524   -0.1700
     23 C23        -8.3047    4.1699   51.9898 C.3     1  ZINC000952280524   -0.1600
     24 C24       -11.5262   -2.1702   52.9439 C.3     1  ZINC000952280524    0.1000
     25 C25       -11.8768   -2.9973   54.1848 C.3     1  ZINC000952280524   -0.1300
     26 C26       -14.0983   -2.2105   57.2723 C.3     1  ZINC000952280524    0.1100
     27 H27       -14.3916    0.2415   61.5818 H       1  ZINC000952280524    0.0700
     28 H28       -15.6545   -0.7244   62.3819 H       1  ZINC000952280524    0.0600
     29 H29       -13.9674   -0.8277   62.9400 H       1  ZINC000952280524    0.0600
     30 H30       -12.2224   -1.8295   61.3820 H       1  ZINC000952280524    0.0600
     31 H31       -12.7443   -2.5764   59.8530 H       1  ZINC000952280524    0.0800
     32 H32       -12.7912   -0.8069   60.0408 H       1  ZINC000952280524    0.0600
     33 H33       -13.9207   -3.2457   62.4928 H       1  ZINC000952280524    0.3700
     34 H34       -16.3288   -1.4887   60.3024 H       1  ZINC000952280524    0.1000
     35 H35       -15.0041   -0.9947   59.2209 H       1  ZINC000952280524    0.1000
     36 H36       -14.3669   -5.2892   57.7864 H       1  ZINC000952280524    0.0700
     37 H37       -15.8601   -4.7606   56.9619 H       1  ZINC000952280524    0.0700
     38 H38       -13.4135   -5.0658   55.6723 H       1  ZINC000952280524    0.0800
     39 H39       -14.6924   -3.9384   55.1130 H       1  ZINC000952280524    0.0800
     40 H40       -13.6648   -1.8639   54.5849 H       1  ZINC000952280524    0.0800
     41 H41       -12.6187   -0.3357   56.2471 H       1  ZINC000952280524    0.0800
     42 H42       -11.0805   -1.2156   56.0747 H       1  ZINC000952280524    0.0700
     43 H43       -12.5633    0.3087   53.8831 H       1  ZINC000952280524    0.0700
     44 H44       -11.0192    0.7711   54.6443 H       1  ZINC000952280524    0.0900
     45 H45        -9.0292    0.9673   54.3928 H       1  ZINC000952280524    0.1300
     46 H46        -8.8186    1.4352   51.3857 H       1  ZINC000952280524    0.1300
     47 H47        -8.1090    3.1171   53.9703 H       1  ZINC000952280524    0.1200
     48 H48        -6.1527    4.0266   52.6355 H       1  ZINC000952280524    0.1000
     49 H49        -6.5953    2.9167   51.2307 H       1  ZINC000952280524    0.1000
     50 H50        -8.8688    4.0297   51.0677 H       1  ZINC000952280524    0.1000
     51 H51        -8.4262    5.1396   52.4726 H       1  ZINC000952280524    0.1000
     52 H52       -12.4317   -1.9670   52.3723 H       1  ZINC000952280524    0.0700
     53 H53       -10.8174   -2.7214   52.3258 H       1  ZINC000952280524    0.0900
     54 H54       -10.9614   -3.2766   54.7064 H       1  ZINC000952280524    0.0700
     55 H55       -12.4129   -3.8970   53.8827 H       1  ZINC000952280524    0.0800
     56 H56       -14.7815   -1.5974   56.6845 H       1  ZINC000952280524    0.0700
     57 H57       -13.5282   -1.5890   57.9628 H       1  ZINC000952280524    0.0800
@<TRIPOS>BOND
     1     1     2    1
     2     1    27    1
     3     1    28    1
     4     1    29    1
     5     2     3    1
     6     2     4    1
     7     2     5    1
     8     3    30    1
     9     3    31    1
    10     3    32    1
    11     4    33    1
    12     5     6    1
    13     5    34    1
    14     5    35    1
    15     6     7    2
    16     6     8   am
    17     8    26    1
    18     8     9    1
    19     9    10    1
    20     9    36    1
    21     9    37    1
    22    10    11    1
    23    10    38    1
    24    10    39    1
    25    11    12    1
    26    11    13    1
    27    11    26    1
    28    13    25    1
    29    13    14    1
    30    13    40    1
    31    14    15    1
    32    14    41    1
    33    14    42    1
    34    15    16    1
    35    15    43    1
    36    15    44    1
    37    16    17   am
    38    16    24    1
    39    17    18    2
    40    17    19    1
    41    19    20    2
    42    19    45    1
    43    20    21    1
    44    20    46    1
    45    21    23    1
    46    21    22    1
    47    21    47    1
    48    22    23    1
    49    22    48    1
    50    22    49    1
    51    23    50    1
    52    23    51    1
    53    24    25    1
    54    24    52    1
    55    24    53    1
    56    25    54    1
    57    25    55    1
    58    26    56    1
    59    26    57    1
@<TRIPOS>SUBSTRUCTURE
     1 ZINC000952280524        1 TEMP              0 ****  ****    0 ROOT


##########                                Name:    ZINC000425987417
##########                DOCK_Rotatable_Bonds:                   9
##########                         Heavy_Atoms:                  25
##########                    Molecular_Weight:             357.419
##########                DOCK_Rotatable_Bonds:                   9
##########                       Formal_Charge:         -0.00999992
##########                     HBond_Acceptors:                   7
##########                        HBond_Donors:                   1
##########                         Heavy_Atoms:                  25
##########                          Grid_Score:          -31.965672
##########                     Grid_vdw_energy:          -31.165188
##########                      Grid_es_energy:           -0.800484
##########           Internal_energy_repulsive:           10.077878

@<TRIPOS>MOLECULE
ZINC000425987417
 51 52 1 0 0
SMALL
USER_CHARGES


@<TRIPOS>ATOM
      1 C1         -8.3756    4.5717   51.0561 C.3     1  ZINC000425987417   -0.1500
      2 C2         -7.3808    4.0284   50.0283 C.3     1  ZINC000425987417    0.0400
      3 N3         -6.5820    2.9573   50.6386 N.3     1  ZINC000425987417   -0.5300
      4 C4         -7.2686    1.6629   50.5325 C.3     1  ZINC000425987417    0.0400
      5 C5         -7.0312    0.8536   51.8090 C.3     1  ZINC000425987417    0.1400
      6 N6         -8.2542    0.8441   52.6156 N.am    1  ZINC000425987417   -0.7500
      7 C7         -9.0887   -0.2129   52.5619 C.2     1  ZINC000425987417    0.7200
      8 O8         -8.8265   -1.1585   51.8441 O.2     1  ZINC000425987417   -0.5800
      9 N9        -10.2137   -0.2215   53.3040 N.am    1  ZINC000425987417   -0.6200
     10 C10       -10.5597    0.9077   54.1832 C.3     1  ZINC000425987417    0.1300
     11 C11       -10.5443    0.4022   55.6250 C.3     1  ZINC000425987417   -0.1000
     12 C12       -11.3060   -0.8912   55.7477 C.ar    1  ZINC000425987417   -0.0600
     13 C13       -11.7513   -1.2592   57.0112 C.ar    1  ZINC000425987417   -0.1200
     14 C14       -12.4467   -2.4364   57.1949 C.ar    1  ZINC000425987417   -0.1100
     15 C15       -12.7026   -3.2596   56.1144 C.ar    1  ZINC000425987417   -0.1200
     16 C16       -12.2643   -2.8949   54.8577 C.ar    1  ZINC000425987417   -0.1100
     17 C17       -11.5697   -1.7079   54.6707 C.ar    1  ZINC000425987417   -0.0900
     18 C18       -11.1455   -1.3537   53.2635 C.3     1  ZINC000425987417    0.1800
     19 H19       -10.6536   -2.2121   52.8060 H       1  ZINC000425987417    0.0900
     20 C20       -12.3784   -0.9749   52.4403 C.3     1  ZINC000425987417   -0.1600
     21 C21        -5.2422    2.8933   50.0397 C.3     1  ZINC000425987417    0.0500
     22 C22        -4.3120    3.8673   50.7655 C.3     1  ZINC000425987417   -0.1600
     23 C23        -2.8698    3.3668   50.6640 C.3     1  ZINC000425987417    0.4500
     24 F24        -1.9914    4.4070   50.9860 F       1  ZINC000425987417   -0.1800
     25 F25        -2.6809    2.3045   51.5545 F       1  ZINC000425987417   -0.1800
     26 F26        -2.6181    2.9313   49.3586 F       1  ZINC000425987417   -0.1900
     27 H27        -7.8309    5.0086   51.8931 H       1  ZINC000425987417    0.0500
     28 H28        -8.9991    5.3347   50.5903 H       1  ZINC000425987417    0.0600
     29 H29        -9.0053    3.7586   51.4172 H       1  ZINC000425987417    0.0700
     30 H30        -7.9245    3.6326   49.1705 H       1  ZINC000425987417    0.0800
     31 H31        -6.7212    4.8322   49.7011 H       1  ZINC000425987417    0.0400
     32 H32        -8.3379    1.8286   50.4008 H       1  ZINC000425987417    0.0500
     33 H33        -6.8778    1.1136   49.6759 H       1  ZINC000425987417    0.0800
     34 H34        -6.7616   -0.1692   51.5458 H       1  ZINC000425987417    0.0800
     35 H35        -6.2219    1.3069   52.3814 H       1  ZINC000425987417    0.0700
     36 H36        -8.4632    1.5986   53.1882 H       1  ZINC000425987417    0.3900
     37 H37        -9.8266    1.7056   54.0643 H       1  ZINC000425987417    0.1000
     38 H38       -11.5535    1.2788   53.9330 H       1  ZINC000425987417    0.0700
     39 H39        -9.5126    0.2418   55.9377 H       1  ZINC000425987417    0.0800
     40 H40       -11.0020    1.1505   56.2720 H       1  ZINC000425987417    0.0900
     41 H41       -11.5510   -0.6183   57.8570 H       1  ZINC000425987417    0.1200
     42 H42       -12.7899   -2.7143   58.1805 H       1  ZINC000425987417    0.1200
     43 H43       -13.2429   -4.1843   56.2531 H       1  ZINC000425987417    0.1200
     44 H44       -12.4634   -3.5380   54.0132 H       1  ZINC000425987417    0.1200
     45 H45       -12.8716   -0.1175   52.8982 H       1  ZINC000425987417    0.0700
     46 H46       -12.0732   -0.7194   51.4256 H       1  ZINC000425987417    0.0600
     47 H47       -13.0686   -1.8180   52.4107 H       1  ZINC000425987417    0.0700
     48 H48        -4.8509    1.8801   50.1321 H       1  ZINC000425987417    0.0500
     49 H49        -5.3019    3.1649   48.9858 H       1  ZINC000425987417    0.0900
     50 H50        -4.3877    4.8528   50.3060 H       1  ZINC000425987417    0.1200
     51 H51        -4.6010    3.9323   51.8145 H       1  ZINC000425987417    0.1100
@<TRIPOS>BOND
     1     1     2    1
     2     1    27    1
     3     1    28    1
     4     1    29    1
     5     2     3    1
     6     2    30    1
     7     2    31    1
     8     3     4    1
     9     3    21    1
    10     4     5    1
    11     4    32    1
    12     4    33    1
    13     5     6    1
    14     5    34    1
    15     5    35    1
    16     6     7   am
    17     6    36    1
    18     7     8    2
    19     7     9   am
    20     9    18    1
    21     9    10    1
    22    10    11    1
    23    10    37    1
    24    10    38    1
    25    11    12    1
    26    11    39    1
    27    11    40    1
    28    12    17   ar
    29    12    13   ar
    30    13    14   ar
    31    13    41    1
    32    14    15   ar
    33    14    42    1
    34    15    16   ar
    35    15    43    1
    36    16    17   ar
    37    16    44    1
    38    17    18    1
    39    18    19    1
    40    18    20    1
    41    20    45    1
    42    20    46    1
    43    20    47    1
    44    21    22    1
    45    21    48    1
    46    21    49    1
    47    22    23    1
    48    22    50    1
    49    22    51    1
    50    23    24    1
    51    23    25    1
    52    23    26    1
@<TRIPOS>SUBSTRUCTURE
     1 ZINC000425987417        1 TEMP              0 ****  ****    0 ROOT


##########                                Name:    ZINC000918875053
##########                DOCK_Rotatable_Bonds:                   6
##########                         Heavy_Atoms:                  26
##########                    Molecular_Weight:             359.357
##########                DOCK_Rotatable_Bonds:                   6
##########                       Formal_Charge:           0.0200003
##########                     HBond_Acceptors:                   8
##########                        HBond_Donors:                   0
##########                         Heavy_Atoms:                  26
##########                          Grid_Score:          -31.947279
##########                     Grid_vdw_energy:          -31.595304
##########                      Grid_es_energy:           -0.351974
##########           Internal_energy_repulsive:            7.533141

@<TRIPOS>MOLECULE
ZINC000918875053
 44 47 1 0 0
SMALL
USER_CHARGES


@<TRIPOS>ATOM
      1 C1        -11.9446   -1.1101   51.6929 C.3     1  ZINC000918875053   -0.1700
      2 C2        -11.0046   -0.9375   52.8878 C.3     1  ZINC000918875053    0.1900
      3 H3        -11.4556   -0.2563   53.6094 H       1  ZINC000918875053    0.1400
      4 O4        -10.7780   -2.2270   53.5155 O.3     1  ZINC000918875053   -0.3400
      5 C5        -11.8475   -2.8457   54.0401 C.2     1  ZINC000918875053    0.4800
      6 O6        -12.2286   -3.8931   53.5736 O.2     1  ZINC000918875053   -0.4900
      7 C7        -12.5730   -2.2339   55.2107 C.3     1  ZINC000918875053   -0.0900
      8 H8        -13.1367   -1.3538   54.9009 H       1  ZINC000918875053    0.1400
      9 C9        -13.4960   -3.2702   55.8927 C.3     1  ZINC000918875053   -0.1400
     10 C10       -13.3904   -2.9475   57.3669 C.2     1  ZINC000918875053    0.5300
     11 O11       -14.1606   -3.3352   58.2199 O.2     1  ZINC000918875053   -0.5000
     12 N12       -12.3184   -2.1690   57.5941 N.am    1  ZINC000918875053   -0.5800
     13 C13       -11.9448   -1.6871   58.8549 C.ar    1  ZINC000918875053    0.1000
     14 C14       -12.7656   -0.7944   59.5295 C.ar    1  ZINC000918875053   -0.0800
     15 C15       -12.3947   -0.3208   60.7735 C.ar    1  ZINC000918875053   -0.1200
     16 C16       -11.2070   -0.7345   61.3472 C.ar    1  ZINC000918875053   -0.0800
     17 C17       -10.3854   -1.6242   60.6789 C.ar    1  ZINC000918875053   -0.1500
     18 C18       -10.7529   -2.1066   59.4363 C.ar    1  ZINC000918875053    0.1100
     19 F19        -9.9508   -2.9758   58.7836 F       1  ZINC000918875053   -0.1300
     20 C20       -11.5899   -1.8877   56.3508 C.3     1  ZINC000918875053    0.1200
     21 C21        -9.6905   -0.3709   52.4153 C.2     1  ZINC000918875053    0.1800
     22 N22        -9.3008    0.8779   52.5058 N.2     1  ZINC000918875053   -0.4600
     23 C23        -8.0725    0.9144   51.9590 C.2     1  ZINC000918875053    0.2100
     24 C24        -7.1931    2.1304   51.8219 C.3     1  ZINC000918875053   -0.0900
     25 C25        -7.1790    2.8430   50.4681 C.3     1  ZINC000918875053   -0.1600
     26 C26        -7.8829    3.4869   51.6643 C.3     1  ZINC000918875053   -0.1500
     27 N27        -7.7833   -0.2916   51.5712 N.2     1  ZINC000918875053   -0.3700
     28 O28        -8.6973   -1.0463   51.8294 O.3     1  ZINC000918875053    0.1000
     29 H29       -12.8951   -1.5199   52.0345 H       1  ZINC000918875053    0.0900
     30 H30       -12.1146   -0.1421   51.2216 H       1  ZINC000918875053    0.0900
     31 H31       -11.4936   -1.7913   50.9713 H       1  ZINC000918875053    0.0800
     32 H32       -14.5234   -3.1508   55.5487 H       1  ZINC000918875053    0.1300
     33 H33       -13.1425   -4.2827   55.6976 H       1  ZINC000918875053    0.1100
     34 H34       -13.6935   -0.4696   59.0823 H       1  ZINC000918875053    0.1400
     35 H35       -13.0337    0.3739   61.2983 H       1  ZINC000918875053    0.1400
     36 H36       -10.9198   -0.3620   62.3193 H       1  ZINC000918875053    0.1400
     37 H37        -9.4581   -1.9454   61.1298 H       1  ZINC000918875053    0.1400
     38 H38       -10.7006   -2.5145   56.2846 H       1  ZINC000918875053    0.1000
     39 H39       -11.3139   -0.8342   56.3054 H       1  ZINC000918875053    0.1000
     40 H40        -6.2608    2.1023   52.3859 H       1  ZINC000918875053    0.1400
     41 H41        -6.2373    3.2839   50.1411 H       1  ZINC000918875053    0.1100
     42 H42        -7.8059    2.4323   49.6766 H       1  ZINC000918875053    0.1000
     43 H43        -8.9728    3.4998   51.6598 H       1  ZINC000918875053    0.1000
     44 H44        -7.4041    4.3514   52.1243 H       1  ZINC000918875053    0.1100
@<TRIPOS>BOND
     1     1     2    1
     2     1    29    1
     3     1    30    1
     4     1    31    1
     5     2     3    1
     6     2     4    1
     7     2    21    1
     8     4     5    1
     9     5     6    2
    10     5     7    1
    11     7     8    1
    12     7    20    1
    13     7     9    1
    14     9    10    1
    15     9    32    1
    16     9    33    1
    17    10    11    2
    18    10    12   am
    19    12    13    1
    20    12    20    1
    21    13    18   ar
    22    13    14   ar
    23    14    15   ar
    24    14    34    1
    25    15    16   ar
    26    15    35    1
    27    16    17   ar
    28    16    36    1
    29    17    18   ar
    30    17    37    1
    31    18    19    1
    32    20    38    1
    33    20    39    1
    34    21    28    1
    35    21    22    2
    36    22    23    1
    37    23    24    1
    38    23    27    2
    39    24    26    1
    40    24    25    1
    41    24    40    1
    42    25    26    1
    43    25    41    1
    44    25    42    1
    45    26    43    1
    46    26    44    1
    47    27    28    1
@<TRIPOS>SUBSTRUCTURE
     1 ZINC000918875053        1 TEMP              0 ****  ****    0 ROOT


##########                                Name:    ZINC000912668252
##########                DOCK_Rotatable_Bonds:                  10
##########                         Heavy_Atoms:                  30
##########                    Molecular_Weight:             411.433
##########                DOCK_Rotatable_Bonds:                  10
##########                       Formal_Charge:           0.0199993
##########                     HBond_Acceptors:                   8
##########                        HBond_Donors:                   2
##########                         Heavy_Atoms:                  30
##########                          Grid_Score:          -31.944584
##########                     Grid_vdw_energy:          -31.780724
##########                      Grid_es_energy:           -0.163861
##########           Internal_energy_repulsive:           13.587719

@<TRIPOS>MOLECULE
ZINC000912668252
 52 54 1 0 0
SMALL
USER_CHARGES


@<TRIPOS>ATOM
      1 C1         -7.5597    0.3223   51.7419 C.3     1  ZINC000912668252   -0.1700
      2 C2         -7.7791    1.8046   51.4331 C.3     1  ZINC000912668252    0.1100
      3 N3         -6.5115    2.5255   51.5733 N.am    1  ZINC000912668252   -0.6100
      4 C4         -5.4410    2.3221   50.5942 C.3     1  ZINC000912668252    0.1000
      5 C5         -4.3053    1.5245   51.2385 C.3     1  ZINC000912668252   -0.1800
      6 C6         -6.3302    3.3758   52.6032 C.2     1  ZINC000912668252    0.5600
      7 O7         -5.2784    3.9738   52.7196 O.2     1  ZINC000912668252   -0.5300
      8 C8         -7.4107    3.5810   53.5915 C.ar    1  ZINC000912668252   -0.1100
      9 C9         -8.4991    4.3973   53.2796 C.ar    1  ZINC000912668252   -0.1100
     10 C10        -9.5066    4.5869   54.2038 C.ar    1  ZINC000912668252   -0.1000
     11 C11        -9.4424    3.9705   55.4392 C.ar    1  ZINC000912668252   -0.1200
     12 C12        -8.3628    3.1557   55.7594 C.ar    1  ZINC000912668252    0.1400
     13 N13        -8.3028    2.5336   57.0117 N.am    1  ZINC000912668252   -0.6700
     14 C14        -9.2404    1.6308   57.3612 C.2     1  ZINC000912668252    0.5200
     15 O15       -10.1362    1.3574   56.5906 O.2     1  ZINC000912668252   -0.4900
     16 C16        -9.1758    0.9609   58.7096 C.3     1  ZINC000912668252    0.0500
     17 O17        -8.5031   -0.3196   58.5821 O.3     1  ZINC000912668252   -0.3300
     18 C18        -9.0197   -1.3542   59.2756 C.2     1  ZINC000912668252    0.5400
     19 O19        -8.3002   -2.0305   59.9848 O.2     1  ZINC000912668252   -0.4800
     20 C20       -10.4521   -1.6641   59.1743 C.2     1  ZINC000912668252    0.0400
     21 C21       -11.3870   -1.3895   60.1224 C.2     1  ZINC000912668252   -0.0900
     22 C22       -12.6373   -1.8448   59.6398 C.ar    1  ZINC000912668252   -0.1000
     23 C23       -13.9344   -1.8336   60.1693 C.ar    1  ZINC000912668252   -0.0900
     24 C24       -14.9673   -2.3620   59.4475 C.ar    1  ZINC000912668252    0.0700
     25 F25       -16.2173   -2.3502   59.9599 F       1  ZINC000912668252   -0.1400
     26 C26       -14.7430   -2.9115   58.1896 C.ar    1  ZINC000912668252   -0.1100
     27 C27       -13.4765   -2.9339   57.6495 C.ar    1  ZINC000912668252   -0.1000
     28 C28       -12.4085   -2.4015   58.3660 C.ar    1  ZINC000912668252    0.1100
     29 N29       -11.0652   -2.2758   58.0977 N.pl3   1  ZINC000912668252   -0.5600
     30 C30        -7.3486    2.9548   54.8364 C.ar    1  ZINC000912668252   -0.0700
     31 H31        -8.5029   -0.2141   51.6375 H       1  ZINC000912668252    0.0700
     32 H32        -6.8287   -0.0894   51.0460 H       1  ZINC000912668252    0.0600
     33 H33        -7.1912    0.2143   52.7621 H       1  ZINC000912668252    0.0600
     34 H34        -8.1475    1.9126   50.4129 H       1  ZINC000912668252    0.0800
     35 H35        -8.5102    2.2164   52.1289 H       1  ZINC000912668252    0.0900
     36 H36        -5.8312    1.7719   49.7381 H       1  ZINC000912668252    0.0900
     37 H37        -5.0631    3.2894   50.2629 H       1  ZINC000912668252    0.0800
     38 H38        -3.6736    2.1964   51.8196 H       1  ZINC000912668252    0.0600
     39 H39        -4.7240    0.7613   51.8945 H       1  ZINC000912668252    0.0700
     40 H40        -3.7092    1.0476   50.4604 H       1  ZINC000912668252    0.0700
     41 H41        -8.5527    4.8809   52.3155 H       1  ZINC000912668252    0.1400
     42 H42       -10.3477    5.2191   53.9609 H       1  ZINC000912668252    0.1400
     43 H43       -10.2336    4.1229   56.1584 H       1  ZINC000912668252    0.1300
     44 H44        -7.5863    2.7522   57.6280 H       1  ZINC000912668252    0.4200
     45 H45        -8.6232    1.5941   59.4037 H       1  ZINC000912668252    0.1100
     46 H46       -10.1865    0.8045   59.0864 H       1  ZINC000912668252    0.1100
     47 H47       -11.2077   -0.9104   61.0736 H       1  ZINC000912668252    0.1700
     48 H48       -14.1173   -1.4089   61.1452 H       1  ZINC000912668252    0.1400
     49 H49       -15.5698   -3.3250   57.6314 H       1  ZINC000912668252    0.1400
     50 H50       -13.3122   -3.3634   56.6724 H       1  ZINC000912668252    0.1400
     51 H51       -10.6212   -2.5698   57.2869 H       1  ZINC000912668252    0.4300
     52 H52        -6.5089    2.3220   55.0833 H       1  ZINC000912668252    0.1400
@<TRIPOS>BOND
     1     1     2    1
     2     1    31    1
     3     1    32    1
     4     1    33    1
     5     2     3    1
     6     2    34    1
     7     2    35    1
     8     3     4    1
     9     3     6   am
    10     4     5    1
    11     4    36    1
    12     4    37    1
    13     5    38    1
    14     5    39    1
    15     5    40    1
    16     6     7    2
    17     6     8    1
    18     8    30   ar
    19     8     9   ar
    20     9    10   ar
    21     9    41    1
    22    10    11   ar
    23    10    42    1
    24    11    12   ar
    25    11    43    1
    26    12    13    1
    27    12    30   ar
    28    13    14   am
    29    13    44    1
    30    14    15    2
    31    14    16    1
    32    16    17    1
    33    16    45    1
    34    16    46    1
    35    17    18    1
    36    18    19    2
    37    18    20    1
    38    20    29    1
    39    20    21    2
    40    21    22    1
    41    21    47    1
    42    22    28   ar
    43    22    23   ar
    44    23    24   ar
    45    23    48    1
    46    24    25    1
    47    24    26   ar
    48    26    27   ar
    49    26    49    1
    50    27    28   ar
    51    27    50    1
    52    28    29    1
    53    29    51    1
    54    30    52    1
@<TRIPOS>SUBSTRUCTURE
     1 ZINC000912668252        1 TEMP              0 ****  ****    0 ROOT


##########                                Name:    ZINC000547864253
##########                DOCK_Rotatable_Bonds:                   6
##########                         Heavy_Atoms:                  30
##########                    Molecular_Weight:             422.548
##########                DOCK_Rotatable_Bonds:                   6
##########                       Formal_Charge:           0.0300002
##########                     HBond_Acceptors:                   6
##########                        HBond_Donors:                   2
##########                         Heavy_Atoms:                  30
##########                          Grid_Score:          -31.942837
##########                     Grid_vdw_energy:          -31.211422
##########                      Grid_es_energy:           -0.731415
##########           Internal_energy_repulsive:           12.457438

@<TRIPOS>MOLECULE
ZINC000547864253
 56 60 1 0 0
SMALL
USER_CHARGES


@<TRIPOS>ATOM
      1 O1        -13.7827   -2.3972   60.6914 O.2     1  ZINC000547864253   -0.5300
      2 C2        -13.6578   -1.4360   59.9624 C.2     1  ZINC000547864253    0.5400
      3 N3        -12.8779   -0.4026   60.3375 N.am    1  ZINC000547864253   -0.7200
      4 C4        -12.1860   -0.4379   61.6283 C.3     1  ZINC000547864253    0.1300
      5 C5        -11.2113    0.7381   61.7168 C.3     1  ZINC000547864253    0.0200
      6 H6        -11.7720    1.6710   61.7748 H       1  ZINC000547864253    0.0900
      7 C7        -10.3550    0.5893   62.9478 C.2     1  ZINC000547864253   -0.1600
      8 C8         -9.2145   -0.1117   63.0471 C.2     1  ZINC000547864253    0.0600
      9 N9         -8.7174   -0.0164   64.3184 N.pl3   1  ZINC000547864253   -0.5900
     10 C10        -9.5471    0.7682   65.0879 C.ar    1  ZINC000547864253    0.1000
     11 C11        -9.5150    1.1805   66.4158 C.ar    1  ZINC000547864253   -0.1300
     12 C12       -10.5194    1.9860   66.9067 C.ar    1  ZINC000547864253   -0.1000
     13 C13       -11.5649    2.3914   66.0891 C.ar    1  ZINC000547864253   -0.1400
     14 C14       -11.6162    1.9981   64.7813 C.ar    1  ZINC000547864253   -0.0700
     15 C15       -10.6059    1.1872   64.2614 C.ar    1  ZINC000547864253   -0.1000
     16 C16       -10.3326    0.7554   60.4926 C.ar    1  ZINC000547864253   -0.0700
     17 C17       -10.0053    1.9576   59.8938 C.ar    1  ZINC000547864253   -0.1100
     18 C18        -9.1992    1.9736   58.7709 C.ar    1  ZINC000547864253   -0.1200
     19 C19        -8.7202    0.7873   58.2470 C.ar    1  ZINC000547864253   -0.1200
     20 C20        -9.0467   -0.4147   58.8464 C.ar    1  ZINC000547864253   -0.1100
     21 C21        -9.8492   -0.4303   59.9719 C.ar    1  ZINC000547864253   -0.1200
     22 C22       -14.3695   -1.3997   58.6346 C.3     1  ZINC000547864253   -0.1700
     23 H23       -15.1077   -0.6062   58.5185 H       1  ZINC000547864253    0.1400
     24 C24       -14.6570   -2.7375   57.9506 C.3     1  ZINC000547864253   -0.1300
     25 C25       -13.5723   -1.8107   57.3937 C.3     1  ZINC000547864253   -0.1400
     26 C26       -13.8772   -1.0759   56.0877 C.3     1  ZINC000547864253   -0.0700
     27 C27       -13.6305   -2.0095   54.9007 C.3     1  ZINC000547864253   -0.6000
     28 S28       -11.8880   -2.5192   54.8938 S.o2    1  ZINC000547864253    2.4200
     29 O29       -11.7170   -3.5386   53.9187 O.2     1  ZINC000547864253   -0.9400
     30 O30       -11.0749   -1.3555   54.8323 O.2     1  ZINC000547864253   -0.9300
     31 C31       -11.7192   -3.2599   56.5429 C.3     1  ZINC000547864253   -0.6000
     32 C32       -12.1158   -2.2282   57.6011 C.3     1  ZINC000547864253   -0.0700
     33 H33       -12.7748    0.3643   59.7527 H       1  ZINC000547864253    0.4000
     34 H34       -12.9164   -0.3660   62.4341 H       1  ZINC000547864253    0.0800
     35 H35       -11.6351   -1.3740   61.7198 H       1  ZINC000547864253    0.0700
     36 H36        -8.7571   -0.6687   62.2428 H       1  ZINC000547864253    0.1700
     37 H37        -7.9020   -0.4387   64.6311 H       1  ZINC000547864253    0.4200
     38 H38        -8.7057    0.8700   67.0602 H       1  ZINC000547864253    0.1200
     39 H39       -10.4928    2.3048   67.9382 H       1  ZINC000547864253    0.1300
     40 H40       -12.3444    3.0226   66.4896 H       1  ZINC000547864253    0.1200
     41 H41       -12.4330    2.3175   64.1510 H       1  ZINC000547864253    0.1200
     42 H42       -10.3796    2.8843   60.3031 H       1  ZINC000547864253    0.1200
     43 H43        -8.9441    2.9127   58.3026 H       1  ZINC000547864253    0.1200
     44 H44        -8.0910    0.7998   57.3693 H       1  ZINC000547864253    0.1200
     45 H45        -8.6727   -1.3415   58.4370 H       1  ZINC000547864253    0.1200
     46 H46       -10.1044   -1.3695   60.4402 H       1  ZINC000547864253    0.1200
     47 H47       -14.3314   -3.6440   58.4609 H       1  ZINC000547864253    0.1100
     48 H48       -15.5842   -2.8241   57.3841 H       1  ZINC000547864253    0.1100
     49 H49       -14.9190   -0.7553   56.0866 H       1  ZINC000547864253    0.0900
     50 H50       -13.2299   -0.2030   56.0031 H       1  ZINC000547864253    0.0900
     51 H51       -14.2670   -2.8897   54.9915 H       1  ZINC000547864253    0.1400
     52 H52       -13.8608   -1.4869   53.9723 H       1  ZINC000547864253    0.1400
     53 H53       -12.3716   -4.1297   56.6198 H       1  ZINC000547864253    0.1400
     54 H54       -10.6847   -3.5646   56.7010 H       1  ZINC000547864253    0.1400
     55 H55       -11.4717   -1.3532   57.5135 H       1  ZINC000547864253    0.0900
     56 H56       -12.0012   -2.6642   58.5934 H       1  ZINC000547864253    0.0900
@<TRIPOS>BOND
     1     1     2    2
     2     2     3   am
     3     2    22    1
     4     3     4    1
     5     3    33    1
     6     4     5    1
     7     4    34    1
     8     4    35    1
     9     5     6    1
    10     5     7    1
    11     5    16    1
    12     7    15    1
    13     7     8    2
    14     8     9    1
    15     8    36    1
    16     9    10    1
    17     9    37    1
    18    10    15   ar
    19    10    11   ar
    20    11    12   ar
    21    11    38    1
    22    12    13   ar
    23    12    39    1
    24    13    14   ar
    25    13    40    1
    26    14    15   ar
    27    14    41    1
    28    16    21   ar
    29    16    17   ar
    30    17    18   ar
    31    17    42    1
    32    18    19   ar
    33    18    43    1
    34    19    20   ar
    35    19    44    1
    36    20    21   ar
    37    20    45    1
    38    21    46    1
    39    22    23    1
    40    22    25    1
    41    22    24    1
    42    24    25    1
    43    24    47    1
    44    24    48    1
    45    25    32    1
    46    25    26    1
    47    26    27    1
    48    26    49    1
    49    26    50    1
    50    27    28    1
    51    27    51    1
    52    27    52    1
    53    28    29    2
    54    28    30    2
    55    28    31    1
    56    31    32    1
    57    31    53    1
    58    31    54    1
    59    32    55    1
    60    32    56    1
@<TRIPOS>SUBSTRUCTURE
     1 ZINC000547864253        1 TEMP              0 ****  ****    0 ROOT


##########                                Name:    ZINC000432253027
##########                DOCK_Rotatable_Bonds:                   8
##########                         Heavy_Atoms:                  26
##########                    Molecular_Weight:             401.436
##########                DOCK_Rotatable_Bonds:                   8
##########                       Formal_Charge:         1.19209e-07
##########                     HBond_Acceptors:                  11
##########                        HBond_Donors:                   0
##########                         Heavy_Atoms:                  26
##########                          Grid_Score:          -31.929153
##########                     Grid_vdw_energy:          -30.718441
##########                      Grid_es_energy:           -1.210712
##########           Internal_energy_repulsive:            9.182486

@<TRIPOS>MOLECULE
ZINC000432253027
 40 42 1 0 0
SMALL
USER_CHARGES


@<TRIPOS>ATOM
      1 C1        -13.1866    0.9390   60.4249 C.3     1  ZINC000432253027    0.0300
      2 O2        -12.6259   -0.3611   60.6185 O.3     1  ZINC000432253027   -0.3100
      3 C3        -11.3892   -0.4223   61.1765 C.ar    1  ZINC000432253027    0.1500
      4 C4        -11.1570    0.1488   62.4169 C.ar    1  ZINC000432253027   -0.2100
      5 C5         -9.8977    0.0863   62.9838 C.ar    1  ZINC000432253027   -0.0600
      6 C6         -8.8621   -0.5460   62.3185 C.ar    1  ZINC000432253027   -0.1600
      7 C7         -9.0773   -1.1198   61.0823 C.ar    1  ZINC000432253027   -0.0300
      8 C8        -10.3450   -1.0683   60.5028 C.ar    1  ZINC000432253027   -0.0600
      9 C9        -10.5821   -1.6809   59.1790 C.2     1  ZINC000432253027    0.1200
     10 N10       -11.0319   -1.0577   58.1274 N.2     1  ZINC000432253027   -0.4600
     11 C11       -11.1798   -1.7667   57.0314 C.2     1  ZINC000432253027    0.0800
     12 C12       -11.6911   -1.1613   55.7495 C.3     1  ZINC000432253027   -0.0200
     13 S13       -12.4461   -2.4563   54.7280 S.3     1  ZINC000432253027   -0.1700
     14 C14       -14.1458   -2.5333   55.3571 C.3     1  ZINC000432253027   -0.0300
     15 C15       -14.3870   -3.8800   55.9890 C.2     1  ZINC000432253027    0.2100
     16 N16       -13.7925   -5.0068   55.6810 N.2     1  ZINC000432253027   -0.2700
     17 N17       -14.2700   -5.9297   56.4426 N.2     1  ZINC000432253027   -0.0500
     18 N18       -15.1537   -5.4211   57.2285 N.2     1  ZINC000432253027   -0.0700
     19 N19       -15.2507   -4.1580   56.9831 N.pl3   1  ZINC000432253027   -0.3100
     20 C20       -16.1406   -3.2073   57.6540 C.3     1  ZINC000432253027    0.0700
     21 C21       -15.4785   -2.7093   58.9402 C.3     1  ZINC000432253027    0.4300
     22 F22       -14.2144   -2.1889   58.6427 F       1  ZINC000432253027   -0.1500
     23 F23       -16.2705   -1.7099   59.5159 F       1  ZINC000432253027   -0.1700
     24 F24       -15.3450   -3.7736   59.8384 F       1  ZINC000432253027   -0.1700
     25 C25       -10.8483   -3.0583   57.1235 C.2     1  ZINC000432253027   -0.2500
     26 S26       -10.2945   -3.3695   58.7676 S.3     1  ZINC000432253027    0.1600
     27 H27       -14.1740    0.8452   59.9727 H       1  ZINC000432253027    0.1000
     28 H28       -13.2741    1.4440   61.3869 H       1  ZINC000432253027    0.0600
     29 H29       -12.5395    1.5196   59.7673 H       1  ZINC000432253027    0.0600
     30 H30       -11.9607    0.6439   62.9416 H       1  ZINC000432253027    0.1400
     31 H31        -9.7211    0.5337   63.9507 H       1  ZINC000432253027    0.1300
     32 H32        -7.8813   -0.5903   62.7686 H       1  ZINC000432253027    0.1300
     33 H33        -8.2664   -1.6121   60.5661 H       1  ZINC000432253027    0.1400
     34 H34       -12.4359   -0.3993   55.9794 H       1  ZINC000432253027    0.1000
     35 H35       -10.8624   -0.7070   55.2064 H       1  ZINC000432253027    0.1100
     36 H36       -14.2935   -1.7510   56.1016 H       1  ZINC000432253027    0.1100
     37 H37       -14.8449   -2.3878   54.5336 H       1  ZINC000432253027    0.1300
     38 H38       -16.3332   -2.3617   56.9936 H       1  ZINC000432253027    0.1500
     39 H39       -17.0819   -3.7001   57.8973 H       1  ZINC000432253027    0.1600
     40 H40       -10.9061   -3.7851   56.3268 H       1  ZINC000432253027    0.1800
@<TRIPOS>BOND
     1     1     2    1
     2     1    27    1
     3     1    28    1
     4     1    29    1
     5     2     3    1
     6     3     8   ar
     7     3     4   ar
     8     4     5   ar
     9     4    30    1
    10     5     6   ar
    11     5    31    1
    12     6     7   ar
    13     6    32    1
    14     7     8   ar
    15     7    33    1
    16     8     9    1
    17     9    26    1
    18     9    10    2
    19    10    11    1
    20    11    12    1
    21    11    25    2
    22    12    13    1
    23    12    34    1
    24    12    35    1
    25    13    14    1
    26    14    15    1
    27    14    36    1
    28    14    37    1
    29    15    19    1
    30    15    16    2
    31    16    17    1
    32    17    18    2
    33    18    19    1
    34    19    20    1
    35    20    21    1
    36    20    38    1
    37    20    39    1
    38    21    22    1
    39    21    23    1
    40    21    24    1
    41    25    26    1
    42    25    40    1
@<TRIPOS>SUBSTRUCTURE
     1 ZINC000432253027        1 TEMP              0 ****  ****    0 ROOT


##########                                Name:    ZINC000151303733
##########                DOCK_Rotatable_Bonds:                   7
##########                         Heavy_Atoms:                  26
##########                    Molecular_Weight:             369.444
##########                DOCK_Rotatable_Bonds:                   7
##########                       Formal_Charge:        -1.93715e-07
##########                     HBond_Acceptors:                   7
##########                        HBond_Donors:                   2
##########                         Heavy_Atoms:                  26
##########                          Grid_Score:          -31.882519
##########                     Grid_vdw_energy:          -31.184845
##########                      Grid_es_energy:           -0.697674
##########           Internal_energy_repulsive:           12.286271

@<TRIPOS>MOLECULE
ZINC000151303733
 45 48 1 0 0
SMALL
USER_CHARGES


@<TRIPOS>ATOM
      1 C1         -8.9731    1.7837   55.3449 C.3     1  ZINC000151303733   -0.1000
      2 C2         -8.2342    1.7339   54.0324 C.2     1  ZINC000151303733   -0.1200
      3 C3         -7.0873    2.3836   53.8295 C.2     1  ZINC000151303733   -0.2000
      4 S4         -6.5231    2.0929   52.1895 S.3     1  ZINC000151303733    0.1200
      5 C5         -7.9170    1.0736   51.8562 C.2     1  ZINC000151303733   -0.2400
      6 C6         -8.6924    1.0038   52.9445 C.2     1  ZINC000151303733    0.1200
      7 N7         -9.8844    0.2567   52.9800 N.am    1  ZINC000151303733   -0.6400
      8 C8         -9.8907   -1.0227   52.5562 C.2     1  ZINC000151303733    0.5100
      9 O9         -8.8688   -1.5301   52.1439 O.2     1  ZINC000151303733   -0.5100
     10 C10       -11.1672   -1.8228   52.5942 C.3     1  ZINC000151303733    0.1000
     11 N11       -11.4584   -2.2122   53.9762 N.am    1  ZINC000151303733   -0.7100
     12 C12       -12.2984   -1.4687   54.7232 C.2     1  ZINC000151303733    0.5200
     13 O13       -12.8121   -0.4764   54.2517 O.2     1  ZINC000151303733   -0.5100
     14 C14       -12.5993   -1.8703   56.1441 C.3     1  ZINC000151303733    0.1600
     15 H15       -13.5596   -1.4583   56.4541 H       1  ZINC000151303733    0.1300
     16 C16       -11.5061   -1.3845   57.0626 C.ar    1  ZINC000151303733   -0.0900
     17 C17       -11.0233   -0.1350   57.3744 C.ar    1  ZINC000151303733   -0.0900
     18 C18        -9.9822   -0.0013   58.2782 C.ar    1  ZINC000151303733   -0.0800
     19 C19        -9.4258   -1.1217   58.8690 C.ar    1  ZINC000151303733   -0.1200
     20 C20        -9.9027   -2.3799   58.5631 C.ar    1  ZINC000151303733   -0.0400
     21 C21       -10.9515   -2.5226   57.6533 C.ar    1  ZINC000151303733   -0.1500
     22 C22       -11.6629   -3.7064   57.1343 C.2     1  ZINC000151303733    0.5600
     23 O23       -11.4223   -4.8553   57.4501 O.2     1  ZINC000151303733   -0.5100
     24 N24       -12.6164   -3.3328   56.2618 N.am    1  ZINC000151303733   -0.5700
     25 C25       -13.5211   -4.2371   55.5476 C.3     1  ZINC000151303733    0.0900
     26 C26       -14.2474   -5.3040   56.3694 C.3     1  ZINC000151303733   -0.1800
     27 C27       -15.0197   -4.1010   55.8244 C.3     1  ZINC000151303733   -0.1900
     28 H28        -8.6243    0.9765   55.9891 H       1  ZINC000151303733    0.0700
     29 H29        -8.7876    2.7418   55.8302 H       1  ZINC000151303733    0.0700
     30 H30       -10.0419    1.6685   55.1647 H       1  ZINC000151303733    0.0600
     31 H31        -6.5818    2.9960   54.5615 H       1  ZINC000151303733    0.1700
     32 H32        -8.1146    0.5765   50.9180 H       1  ZINC000151303733    0.2000
     33 H33       -10.7015    0.6625   53.3095 H       1  ZINC000151303733    0.4200
     34 H34       -11.9869   -1.2177   52.2069 H       1  ZINC000151303733    0.1100
     35 H35       -11.0541   -2.7167   51.9810 H       1  ZINC000151303733    0.1100
     36 H36       -11.0465   -3.0052   54.3536 H       1  ZINC000151303733    0.4100
     37 H37       -11.4554    0.7415   56.9145 H       1  ZINC000151303733    0.1300
     38 H38        -9.6036    0.9803   58.5221 H       1  ZINC000151303733    0.1400
     39 H39        -8.6140   -1.0110   59.5727 H       1  ZINC000151303733    0.1400
     40 H40        -9.4657   -3.2520   59.0269 H       1  ZINC000151303733    0.1400
     41 H41       -13.2185   -4.5014   54.5344 H       1  ZINC000151303733    0.1400
     42 H42       -14.4225   -6.2706   55.8968 H       1  ZINC000151303733    0.1000
     43 H43       -14.0520   -5.3331   57.4413 H       1  ZINC000151303733    0.1300
     44 H44       -15.3325   -3.3385   56.5378 H       1  ZINC000151303733    0.1000
     45 H45       -15.7030   -4.2760   54.9933 H       1  ZINC000151303733    0.1000
@<TRIPOS>BOND
     1     1     2    1
     2     1    28    1
     3     1    29    1
     4     1    30    1
     5     2     6    1
     6     2     3    2
     7     3     4    1
     8     3    31    1
     9     4     5    1
    10     5     6    2
    11     5    32    1
    12     6     7    1
    13     7     8   am
    14     7    33    1
    15     8     9    2
    16     8    10    1
    17    10    11    1
    18    10    34    1
    19    10    35    1
    20    11    12   am
    21    11    36    1
    22    12    13    2
    23    12    14    1
    24    14    15    1
    25    14    24    1
    26    14    16    1
    27    16    21   ar
    28    16    17   ar
    29    17    18   ar
    30    17    37    1
    31    18    19   ar
    32    18    38    1
    33    19    20   ar
    34    19    39    1
    35    20    21   ar
    36    20    40    1
    37    21    22    1
    38    22    23    2
    39    22    24   am
    40    24    25    1
    41    25    27    1
    42    25    26    1
    43    25    41    1
    44    26    27    1
    45    26    42    1
    46    26    43    1
    47    27    44    1
    48    27    45    1
@<TRIPOS>SUBSTRUCTURE
     1 ZINC000151303733        1 TEMP              0 ****  ****    0 ROOT


##########                                Name:    ZINC001119787528
##########                DOCK_Rotatable_Bonds:                   6
##########                         Heavy_Atoms:                  27
##########                    Molecular_Weight:             362.434
##########                DOCK_Rotatable_Bonds:                   6
##########                       Formal_Charge:          -0.0199998
##########                     HBond_Acceptors:                   7
##########                        HBond_Donors:                   1
##########                         Heavy_Atoms:                  27
##########                          Grid_Score:          -31.851368
##########                     Grid_vdw_energy:          -31.227268
##########                      Grid_es_energy:           -0.624099
##########           Internal_energy_repulsive:           13.968901

@<TRIPOS>MOLECULE
ZINC001119787528
 49 52 1 0 0
SMALL
USER_CHARGES


@<TRIPOS>ATOM
      1 C1         -7.8266    2.7885   50.9027 C.3     1  ZINC001119787528   -0.1700
      2 C2         -8.7375    2.4386   52.0812 C.3     1  ZINC001119787528    0.1000
      3 N3         -9.0183    1.0008   52.0712 N.pl3   1  ZINC001119787528   -0.4500
      4 C4         -8.1348    0.0106   51.8072 C.2     1  ZINC001119787528    0.1800
      5 N5         -8.7533   -1.1385   51.8914 N.2     1  ZINC001119787528   -0.4800
      6 C6        -10.0323   -0.9239   52.2069 C.2     1  ZINC001119787528   -0.0200
      7 C7        -10.2167    0.4080   52.3316 C.2     1  ZINC001119787528   -0.0100
      8 C8        -11.5232    1.0660   52.6899 C.3     1  ZINC001119787528   -0.0600
      9 C9        -12.6625    0.0672   52.4489 C.3     1  ZINC001119787528    0.1400
     10 N10       -12.2792   -1.2418   52.9986 N.am    1  ZINC001119787528   -0.6200
     11 C11       -12.9628   -1.7867   54.0243 C.2     1  ZINC001119787528    0.7200
     12 O12       -13.9093   -1.1952   54.5063 O.2     1  ZINC001119787528   -0.5600
     13 N13       -12.5975   -2.9874   54.5155 N.am    1  ZINC001119787528   -0.6600
     14 C14       -13.3026   -3.5494   55.5734 C.ar    1  ZINC001119787528    0.4200
     15 C15       -13.8838   -4.8112   55.4467 C.ar    1  ZINC001119787528   -0.2500
     16 C16       -14.5742   -5.3270   56.5272 C.ar    1  ZINC001119787528    0.1600
     17 N17       -14.6610   -4.6122   57.6394 N.ar    1  ZINC001119787528   -0.5300
     18 C18       -14.1004   -3.4226   57.7272 C.ar    1  ZINC001119787528    0.3500
     19 C19       -14.2255   -2.6469   59.0131 C.3     1  ZINC001119787528   -0.0100
     20 C20       -12.8743   -2.1095   59.4090 C.ar    1  ZINC001119787528   -0.0800
     21 C21       -12.7772   -0.8905   60.0535 C.ar    1  ZINC001119787528   -0.1000
     22 C22       -11.5378   -0.3975   60.4166 C.ar    1  ZINC001119787528   -0.1200
     23 C23       -10.3957   -1.1237   60.1357 C.ar    1  ZINC001119787528   -0.1200
     24 C24       -10.4930   -2.3432   59.4920 C.ar    1  ZINC001119787528   -0.1200
     25 C25       -11.7326   -2.8382   59.1327 C.ar    1  ZINC001119787528   -0.1000
     26 N26       -13.4290   -2.8954   56.7238 N.ar    1  ZINC001119787528   -0.5500
     27 C27       -11.1282   -1.9442   52.4051 C.3     1  ZINC001119787528    0.2000
     28 H28        -7.6177    3.8583   50.9100 H       1  ZINC001119787528    0.0800
     29 H29        -6.8916    2.2350   50.9893 H       1  ZINC001119787528    0.0600
     30 H30        -8.3217    2.5215   49.9691 H       1  ZINC001119787528    0.0600
     31 H31        -8.2424    2.7057   53.0148 H       1  ZINC001119787528    0.0900
     32 H32        -9.6725    2.9921   51.9944 H       1  ZINC001119787528    0.1000
     33 H33        -7.0909    0.1469   51.5662 H       1  ZINC001119787528    0.2100
     34 H34       -11.5093    1.3580   53.7400 H       1  ZINC001119787528    0.0800
     35 H35       -11.6718    1.9471   52.0657 H       1  ZINC001119787528    0.0900
     36 H36       -13.5671    0.4197   52.9445 H       1  ZINC001119787528    0.1100
     37 H37       -12.8448   -0.0264   51.3785 H       1  ZINC001119787528    0.0800
     38 H38       -11.8424   -3.4593   54.1309 H       1  ZINC001119787528    0.4200
     39 H39       -13.7969   -5.3708   54.5271 H       1  ZINC001119787528    0.1800
     40 H40       -15.0376   -6.3007   56.4655 H       1  ZINC001119787528    0.1700
     41 H41       -14.9188   -1.8178   58.8713 H       1  ZINC001119787528    0.1000
     42 H42       -14.5998   -3.3033   59.7985 H       1  ZINC001119787528    0.1000
     43 H43       -13.6695   -0.3230   60.2729 H       1  ZINC001119787528    0.1300
     44 H44       -11.4618    0.5553   60.9195 H       1  ZINC001119787528    0.1200
     45 H45        -9.4274   -0.7383   60.4187 H       1  ZINC001119787528    0.1200
     46 H46        -9.6006   -2.9105   59.2721 H       1  ZINC001119787528    0.1200
     47 H47       -11.8086   -3.7909   58.6298 H       1  ZINC001119787528    0.1200
     48 H48       -11.4099   -2.3699   51.4420 H       1  ZINC001119787528    0.0900
     49 H49       -10.7894   -2.7337   53.0757 H       1  ZINC001119787528    0.0900
@<TRIPOS>BOND
     1     1     2    1
     2     1    28    1
     3     1    29    1
     4     1    30    1
     5     2     3    1
     6     2    31    1
     7     2    32    1
     8     3     7    1
     9     3     4    1
    10     4     5    2
    11     4    33    1
    12     5     6    1
    13     6    27    1
    14     6     7    2
    15     7     8    1
    16     8     9    1
    17     8    34    1
    18     8    35    1
    19     9    10    1
    20     9    36    1
    21     9    37    1
    22    10    11   am
    23    10    27    1
    24    11    12    2
    25    11    13   am
    26    13    14    1
    27    13    38    1
    28    14    26   ar
    29    14    15   ar
    30    15    16   ar
    31    15    39    1
    32    16    17   ar
    33    16    40    1
    34    17    18   ar
    35    18    19    1
    36    18    26   ar
    37    19    20    1
    38    19    41    1
    39    19    42    1
    40    20    25   ar
    41    20    21   ar
    42    21    22   ar
    43    21    43    1
    44    22    23   ar
    45    22    44    1
    46    23    24   ar
    47    23    45    1
    48    24    25   ar
    49    24    46    1
    50    25    47    1
    51    27    48    1
    52    27    49    1
@<TRIPOS>SUBSTRUCTURE
     1 ZINC001119787528        1 TEMP              0 ****  ****    0 ROOT


##########                                Name:    ZINC001371344729
##########                DOCK_Rotatable_Bonds:                   9
##########                         Heavy_Atoms:                  24
##########                    Molecular_Weight:             332.399
##########                DOCK_Rotatable_Bonds:                   9
##########                       Formal_Charge:          0.00999983
##########                     HBond_Acceptors:                   6
##########                        HBond_Donors:                   1
##########                         Heavy_Atoms:                  24
##########                          Grid_Score:          -31.845222
##########                     Grid_vdw_energy:          -29.835892
##########                      Grid_es_energy:           -2.009330
##########           Internal_energy_repulsive:           21.336493

@<TRIPOS>MOLECULE
ZINC001371344729
 48 49 1 0 0
SMALL
USER_CHARGES


@<TRIPOS>ATOM
      1 C1        -11.4546    0.9059   52.8476 C.3     1  ZINC001371344729   -0.1800
      2 C2        -10.1087    0.1862   52.9544 C.3     1  ZINC001371344729    0.1000
      3 N3         -9.1732    1.0116   53.7223 N.am    1  ZINC001371344729   -0.6100
      4 C4         -9.2696    1.0673   55.0655 C.2     1  ZINC001371344729    0.5100
      5 O5        -10.1318    0.4354   55.6384 O.2     1  ZINC001371344729   -0.5200
      6 C6         -8.3060    1.9150   55.8556 C.3     1  ZINC001371344729   -0.0600
      7 C7         -8.6462    1.8287   57.3212 C.2     1  ZINC001371344729   -0.0100
      8 C8         -8.8022    2.8723   58.1554 C.2     1  ZINC001371344729   -0.1600
      9 C9         -8.6717    4.3316   57.8022 C.3     1  ZINC001371344729   -0.0800
     10 C10        -9.1062    2.3373   59.4283 C.2     1  ZINC001371344729   -0.2100
     11 C11        -9.1270    0.9991   59.2937 C.2     1  ZINC001371344729   -0.0300
     12 O12        -8.8441    0.6966   58.0161 O.3     1  ZINC001371344729   -0.1700
     13 C13        -8.1328    1.7764   53.0303 C.3     1  ZINC001371344729    0.1200
     14 H14        -7.4026    2.1352   53.7556 H       1  ZINC001371344729    0.1100
     15 C15        -8.7684    2.9694   52.3135 C.3     1  ZINC001371344729   -0.1600
     16 C16        -7.4357    0.8785   52.0063 C.3     1  ZINC001371344729    0.1100
     17 N17        -6.0495    1.3200   51.8331 N.am    1  ZINC001371344729   -0.7200
     18 C18        -5.7050    2.0516   50.7550 C.2     1  ZINC001371344729    0.5900
     19 O19        -6.5451    2.3463   49.9265 O.2     1  ZINC001371344729   -0.5300
     20 C20        -4.3103    2.4942   50.5799 C.2     1  ZINC001371344729   -0.2300
     21 C21        -3.6859    2.8092   49.4086 C.2     1  ZINC001371344729    0.0200
     22 O22        -2.4272    3.1647   49.6839 O.3     1  ZINC001371344729   -0.1700
     23 C23        -2.1858    3.0898   51.0020 C.2     1  ZINC001371344729   -0.0100
     24 C24        -0.8737    3.4119   51.6696 C.3     1  ZINC001371344729   -0.0800
     25 C25        -3.2990    2.6823   51.6305 C.2     1  ZINC001371344729   -0.1600
     26 H26       -11.3161    1.8625   52.3438 H       1  ZINC001371344729    0.0700
     27 H27       -12.1507    0.2918   52.2762 H       1  ZINC001371344729    0.0700
     28 H28       -11.8559    1.0762   53.8466 H       1  ZINC001371344729    0.0600
     29 H29        -9.7074    0.0160   51.9553 H       1  ZINC001371344729    0.0900
     30 H30       -10.2472   -0.7704   53.4582 H       1  ZINC001371344729    0.0800
     31 H31        -8.3792    2.9514   55.5261 H       1  ZINC001371344729    0.1100
     32 H32        -7.2899    1.5541   55.6966 H       1  ZINC001371344729    0.1200
     33 H33        -9.6413    4.7173   57.4874 H       1  ZINC001371344729    0.0700
     34 H34        -8.3256    4.8867   58.6741 H       1  ZINC001371344729    0.0700
     35 H35        -7.9539    4.4460   56.9900 H       1  ZINC001371344729    0.0600
     36 H36        -9.2894    2.8961   60.3342 H       1  ZINC001371344729    0.1500
     37 H37        -9.3312    0.2883   60.0808 H       1  ZINC001371344729    0.2000
     38 H38        -9.2651    3.6091   53.0431 H       1  ZINC001371344729    0.0700
     39 H39        -7.9944    3.5385   51.7986 H       1  ZINC001371344729    0.0700
     40 H40        -9.4987    2.6104   51.5882 H       1  ZINC001371344729    0.0700
     41 H41        -7.4470   -0.1526   52.3598 H       1  ZINC001371344729    0.0800
     42 H42        -7.9589    0.9411   51.0523 H       1  ZINC001371344729    0.0800
     43 H43        -5.3797    1.0858   52.4945 H       1  ZINC001371344729    0.4000
     44 H44        -4.1333    2.7787   48.4261 H       1  ZINC001371344729    0.2100
     45 H45        -0.2613    2.5116   51.7208 H       1  ZINC001371344729    0.0800
     46 H46        -0.3505    4.1749   51.0933 H       1  ZINC001371344729    0.0800
     47 H47        -1.0602    3.7822   52.6776 H       1  ZINC001371344729    0.0900
     48 H48        -3.4264    2.5250   52.6913 H       1  ZINC001371344729    0.1600
@<TRIPOS>BOND
     1     1     2    1
     2     1    26    1
     3     1    27    1
     4     1    28    1
     5     2     3    1
     6     2    29    1
     7     2    30    1
     8     3     4   am
     9     3    13    1
    10     4     5    2
    11     4     6    1
    12     6     7    1
    13     6    31    1
    14     6    32    1
    15     7    12    1
    16     7     8    2
    17     8     9    1
    18     8    10    1
    19     9    33    1
    20     9    34    1
    21     9    35    1
    22    10    11    2
    23    10    36    1
    24    11    12    1
    25    11    37    1
    26    13    14    1
    27    13    15    1
    28    13    16    1
    29    15    38    1
    30    15    39    1
    31    15    40    1
    32    16    17    1
    33    16    41    1
    34    16    42    1
    35    17    18   am
    36    17    43    1
    37    18    19    2
    38    18    20    1
    39    20    25    1
    40    20    21    2
    41    21    22    1
    42    21    44    1
    43    22    23    1
    44    23    24    1
    45    23    25    2
    46    24    45    1
    47    24    46    1
    48    24    47    1
    49    25    48    1
@<TRIPOS>SUBSTRUCTURE
     1 ZINC001371344729        1 TEMP              0 ****  ****    0 ROOT


##########                                Name:    ZINC001386869844
##########                DOCK_Rotatable_Bonds:                   9
##########                         Heavy_Atoms:                  25
##########                    Molecular_Weight:             345.485
##########                DOCK_Rotatable_Bonds:                   9
##########                       Formal_Charge:          -0.0300003
##########                     HBond_Acceptors:                   5
##########                        HBond_Donors:                   2
##########                         Heavy_Atoms:                  25
##########                          Grid_Score:          -31.780128
##########                     Grid_vdw_energy:          -30.819893
##########                      Grid_es_energy:           -0.960236
##########           Internal_energy_repulsive:           30.449862

@<TRIPOS>MOLECULE
ZINC001386869844
 56 58 1 0 0
SMALL
USER_CHARGES


@<TRIPOS>ATOM
      1 C1        -10.8729   -0.8167   51.9529 C.3     1  ZINC001386869844    0.0600
      2 N2        -11.0071   -0.4147   53.3553 N.am    1  ZINC001386869844   -0.6200
      3 C3        -12.0563   -1.0059   54.1894 C.3     1  ZINC001386869844    0.1100
      4 C4        -11.6436   -2.4201   54.6021 C.3     1  ZINC001386869844    0.1000
      5 N5        -12.7969   -3.1173   55.1766 N.am    1  ZINC001386869844   -0.7300
      6 C6        -12.9610   -3.1601   56.5137 C.2     1  ZINC001386869844    0.5200
      7 O7        -12.1512   -2.6257   57.2414 O.2     1  ZINC001386869844   -0.5300
      8 C8        -14.1474   -3.8773   57.1047 C.3     1  ZINC001386869844   -0.1300
      9 C9        -14.9940   -2.8872   57.9069 C.3     1  ZINC001386869844   -0.0100
     10 C10       -15.1142   -1.5737   57.1317 C.3     1  ZINC001386869844   -0.1500
     11 C11       -16.3883   -3.4750   58.1336 C.3     1  ZINC001386869844   -0.1600
     12 C12       -14.3262   -2.6228   59.2579 C.3     1  ZINC001386869844   -0.1500
     13 C13       -15.0945   -3.0287   60.5172 C.3     1  ZINC001386869844   -0.1900
     14 C14       -14.9462   -1.5490   60.1543 C.3     1  ZINC001386869844   -0.1800
     15 C15       -10.1654    0.4989   53.8780 C.2     1  ZINC001386869844    0.5900
     16 O16       -10.2770    0.8329   55.0428 O.2     1  ZINC001386869844   -0.5200
     17 C17        -9.1148    1.0907   53.0427 C.2     1  ZINC001386869844   -0.0600
     18 C18        -9.2721    2.1334   52.1517 C.2     1  ZINC001386869844   -0.0900
     19 C19        -8.0253    2.3700   51.5785 C.2     1  ZINC001386869844   -0.1700
     20 C20        -7.1412    1.4871   52.1145 C.2     1  ZINC001386869844    0.0500
     21 C21        -5.6796    1.4275   51.7392 C.3     1  ZINC001386869844   -0.0600
     22 C22        -5.4864    2.1888   50.4224 C.3     1  ZINC001386869844   -0.1100
     23 C23        -6.1421    3.5683   50.5280 C.3     1  ZINC001386869844   -0.1200
     24 C24        -7.6672    3.4090   50.5453 C.3     1  ZINC001386869844   -0.0500
     25 N25        -7.7907    0.7108   53.0096 N.pl3   1  ZINC001386869844   -0.5400
     26 H26       -11.3924   -0.0991   51.3179 H       1  ZINC001386869844    0.0600
     27 H27        -9.8173   -0.8438   51.6822 H       1  ZINC001386869844    0.0800
     28 H28       -11.3088   -1.8062   51.8152 H       1  ZINC001386869844    0.0900
     29 H29       -12.9878   -1.0494   53.6249 H       1  ZINC001386869844    0.1000
     30 H30       -12.1998   -0.3946   55.0804 H       1  ZINC001386869844    0.0900
     31 H31       -10.8466   -2.3641   55.3436 H       1  ZINC001386869844    0.0700
     32 H32       -11.2885   -2.9648   53.7274 H       1  ZINC001386869844    0.0700
     33 H33       -13.4423   -3.5483   54.5947 H       1  ZINC001386869844    0.4000
     34 H34       -14.7499   -4.3045   56.3031 H       1  ZINC001386869844    0.0900
     35 H35       -13.7997   -4.6741   57.7621 H       1  ZINC001386869844    0.0900
     36 H36       -15.5899   -1.7620   56.1693 H       1  ZINC001386869844    0.0800
     37 H37       -15.7174   -0.8682   57.7033 H       1  ZINC001386869844    0.0500
     38 H38       -14.1208   -1.1548   56.9701 H       1  ZINC001386869844    0.0500
     39 H39       -16.3027   -4.4107   58.6859 H       1  ZINC001386869844    0.0500
     40 H40       -16.9915   -2.7696   58.7053 H       1  ZINC001386869844    0.0500
     41 H41       -16.8640   -3.6633   57.1712 H       1  ZINC001386869844    0.0800
     42 H42       -13.2414   -2.7274   59.2746 H       1  ZINC001386869844    0.1000
     43 H43       -16.0757   -3.4840   60.3833 H       1  ZINC001386869844    0.1000
     44 H44       -14.5151   -3.4000   61.3625 H       1  ZINC001386869844    0.0900
     45 H45       -14.2693   -0.9475   60.7610 H       1  ZINC001386869844    0.0900
     46 H46       -15.8298   -1.0309   59.7816 H       1  ZINC001386869844    0.0900
     47 H47       -10.1883    2.6644   51.9392 H       1  ZINC001386869844    0.1500
     48 H48        -5.0803    1.8914   52.5226 H       1  ZINC001386869844    0.0800
     49 H49        -5.3757    0.3886   51.6104 H       1  ZINC001386869844    0.0800
     50 H50        -4.4212    2.3072   50.2243 H       1  ZINC001386869844    0.0700
     51 H51        -5.9470    1.6291   49.6084 H       1  ZINC001386869844    0.0700
     52 H52        -5.8171    4.0557   51.4472 H       1  ZINC001386869844    0.0600
     53 H53        -5.8499    4.1760   49.6716 H       1  ZINC001386869844    0.0700
     54 H54        -8.0137    3.0855   49.5639 H       1  ZINC001386869844    0.0700
     55 H55        -8.1328    4.3600   50.8044 H       1  ZINC001386869844    0.0700
     56 H56        -7.3917    0.0026   53.5390 H       1  ZINC001386869844    0.4200
@<TRIPOS>BOND
     1     1     2    1
     2     1    26    1
     3     1    27    1
     4     1    28    1
     5     2     3    1
     6     2    15   am
     7     3     4    1
     8     3    29    1
     9     3    30    1
    10     4     5    1
    11     4    31    1
    12     4    32    1
    13     5     6   am
    14     5    33    1
    15     6     7    2
    16     6     8    1
    17     8     9    1
    18     8    34    1
    19     8    35    1
    20     9    10    1
    21     9    11    1
    22     9    12    1
    23    10    36    1
    24    10    37    1
    25    10    38    1
    26    11    39    1
    27    11    40    1
    28    11    41    1
    29    12    14    1
    30    12    13    1
    31    12    42    1
    32    13    14    1
    33    13    43    1
    34    13    44    1
    35    14    45    1
    36    14    46    1
    37    15    16    2
    38    15    17    1
    39    17    25    1
    40    17    18    2
    41    18    19    1
    42    18    47    1
    43    19    24    1
    44    19    20    2
    45    20    21    1
    46    20    25    1
    47    21    22    1
    48    21    48    1
    49    21    49    1
    50    22    23    1
    51    22    50    1
    52    22    51    1
    53    23    24    1
    54    23    52    1
    55    23    53    1
    56    24    54    1
    57    24    55    1
    58    25    56    1
@<TRIPOS>SUBSTRUCTURE
     1 ZINC001386869844        1 TEMP              0 ****  ****    0 ROOT


##########                                Name:    ZINC000751548479
##########                DOCK_Rotatable_Bonds:                   9
##########                         Heavy_Atoms:                  27
##########                    Molecular_Weight:             389.407
##########                DOCK_Rotatable_Bonds:                   9
##########                       Formal_Charge:           0.0199995
##########                     HBond_Acceptors:                   9
##########                        HBond_Donors:                   2
##########                         Heavy_Atoms:                  27
##########                          Grid_Score:          -31.771151
##########                     Grid_vdw_energy:          -30.731470
##########                      Grid_es_energy:           -1.039680
##########           Internal_energy_repulsive:           13.168999

@<TRIPOS>MOLECULE
ZINC000751548479
 43 44 1 0 0
SMALL
USER_CHARGES


@<TRIPOS>ATOM
      1 C1        -17.5117   -1.4958   52.5459 C.3     1  ZINC000751548479   -0.1600
      2 C2        -16.0732   -1.0096   52.7342 C.3     1  ZINC000751548479    0.0800
      3 O3        -15.4523   -0.8206   51.4354 O.3     1  ZINC000751548479   -0.3600
      4 C4        -14.1621   -0.4355   51.4249 C.2     1  ZINC000751548479    0.6500
      5 O5        -13.6246   -0.1407   50.3758 O.2     1  ZINC000751548479   -0.5400
      6 N6        -13.4670   -0.3771   52.5781 N.am    1  ZINC000751548479   -0.6500
      7 C7        -12.1289    0.0223   52.5673 C.ar    1  ZINC000751548479    0.2000
      8 C8        -11.8053    1.3667   52.4550 C.ar    1  ZINC000751548479   -0.1000
      9 C9        -10.4830    1.7632   52.4442 C.ar    1  ZINC000751548479   -0.1000
     10 C10        -9.4660    0.8200   52.5456 C.ar    1  ZINC000751548479    0.1300
     11 N11        -8.1286    1.2317   52.5334 N.am    1  ZINC000751548479   -1.0500
     12 S12        -7.2039    1.0022   51.1789 S.o2    1  ZINC000751548479    2.6800
     13 O13        -7.0561   -0.4029   51.0274 O.2     1  ZINC000751548479   -0.9500
     14 O14        -7.7541    1.8390   50.1709 O.2     1  ZINC000751548479   -0.9400
     15 C15        -5.5979    1.6365   51.5302 C.2     1  ZINC000751548479   -0.7500
     16 C16        -4.8425    2.1090   50.5484 C.2     1  ZINC000751548479    0.0700
     17 C17        -3.4962    2.6426   50.8433 C.ar    1  ZINC000751548479   -0.1100
     18 C18        -2.7286    3.2082   49.8243 C.ar    1  ZINC000751548479   -0.0600
     19 C19        -1.4729    3.7051   50.1049 C.ar    1  ZINC000751548479   -0.1600
     20 C20        -0.9731    3.6432   51.3959 C.ar    1  ZINC000751548479    0.1200
     21 F21         0.2575    4.1311   51.6654 F       1  ZINC000751548479   -0.1300
     22 C22        -1.7314    3.0831   52.4115 C.ar    1  ZINC000751548479   -0.1600
     23 C23        -2.9904    2.5880   52.1428 C.ar    1  ZINC000751548479   -0.0500
     24 C24        -9.7734   -0.5255   52.6592 C.ar    1  ZINC000751548479   -0.0600
     25 C25       -11.1085   -0.9342   52.6758 C.ar    1  ZINC000751548479   -0.0300
     26 C26       -11.4343   -2.3236   52.7935 C.1     1  ZINC000751548479    0.2500
     27 N27       -11.6927   -3.4259   52.8869 N.1     1  ZINC000751548479   -0.4000
     28 H28       -17.5075   -2.4416   52.0040 H       1  ZINC000751548479    0.0700
     29 H29       -17.9778   -1.6378   53.5209 H       1  ZINC000751548479    0.0900
     30 H30       -18.0745   -0.7545   51.9786 H       1  ZINC000751548479    0.0700
     31 H31       -16.0775   -0.0639   53.2762 H       1  ZINC000751548479    0.0800
     32 H32       -15.5105   -1.7509   53.3016 H       1  ZINC000751548479    0.0800
     33 H33       -13.8961   -0.6124   53.4155 H       1  ZINC000751548479    0.4200
     34 H34       -12.5897    2.1048   52.3754 H       1  ZINC000751548479    0.1600
     35 H35       -10.2371    2.8111   52.3562 H       1  ZINC000751548479    0.1700
     36 H36        -7.7431    1.6515   53.3183 H       1  ZINC000751548479    0.4300
     37 H37        -5.2290    1.6403   52.5451 H       1  ZINC000751548479    0.1700
     38 H38        -5.2110    2.1039   49.5332 H       1  ZINC000751548479    0.1500
     39 H39        -3.1169    3.2563   48.8177 H       1  ZINC000751548479    0.1400
     40 H40        -0.8780    4.1430   49.3170 H       1  ZINC000751548479    0.1400
     41 H41        -1.3374    3.0376   53.4160 H       1  ZINC000751548479    0.1400
     42 H42        -3.5807    2.1519   52.9350 H       1  ZINC000751548479    0.1400
     43 H43        -8.9824   -1.2566   52.7379 H       1  ZINC000751548479    0.1500
@<TRIPOS>BOND
     1     1     2    1
     2     1    28    1
     3     1    29    1
     4     1    30    1
     5     2     3    1
     6     2    31    1
     7     2    32    1
     8     3     4    1
     9     4     5    2
    10     4     6   am
    11     6     7    1
    12     6    33    1
    13     7    25   ar
    14     7     8   ar
    15     8     9   ar
    16     8    34    1
    17     9    10   ar
    18     9    35    1
    19    10    11    1
    20    10    24   ar
    21    11    12   am
    22    11    36    1
    23    12    13    2
    24    12    14    2
    25    12    15    1
    26    15    16    2
    27    15    37    1
    28    16    17    1
    29    16    38    1
    30    17    23   ar
    31    17    18   ar
    32    18    19   ar
    33    18    39    1
    34    19    20   ar
    35    19    40    1
    36    20    21    1
    37    20    22   ar
    38    22    23   ar
    39    22    41    1
    40    23    42    1
    41    24    25   ar
    42    24    43    1
    43    25    26    1
    44    26    27    3
@<TRIPOS>SUBSTRUCTURE
     1 ZINC000751548479        1 TEMP              0 ****  ****    0 ROOT


##########                                Name:    ZINC000624498741
##########                DOCK_Rotatable_Bonds:                   7
##########                         Heavy_Atoms:                  27
##########                    Molecular_Weight:             379.339
##########                DOCK_Rotatable_Bonds:                   7
##########                       Formal_Charge:           0.0300003
##########                     HBond_Acceptors:                   9
##########                        HBond_Donors:                   0
##########                         Heavy_Atoms:                  27
##########                          Grid_Score:          -31.766876
##########                     Grid_vdw_energy:          -31.458199
##########                      Grid_es_energy:           -0.308677
##########           Internal_energy_repulsive:            9.716672

@<TRIPOS>MOLECULE
ZINC000624498741
 43 45 1 0 0
SMALL
USER_CHARGES


@<TRIPOS>ATOM
      1 C1        -12.7778    0.2143   56.6167 C.3     1  ZINC000624498741   -0.1100
      2 C2        -12.1754   -0.5627   55.4745 C.ar    1  ZINC000624498741   -0.0900
      3 C3        -11.1442   -0.0189   54.7410 C.ar    1  ZINC000624498741   -0.0400
      4 C4        -10.5862   -0.7401   53.6826 C.ar    1  ZINC000624498741   -0.0500
      5 C5         -9.4802   -0.1611   52.8940 C.2     1  ZINC000624498741    0.2300
      6 N6         -8.7902    0.9288   53.1833 N.2     1  ZINC000624498741   -0.4700
      7 C7         -7.8971    1.0629   52.1906 C.2     1  ZINC000624498741    0.1800
      8 C8         -6.8707    2.1584   52.0593 C.3     1  ZINC000624498741   -0.0300
      9 C9         -6.7334    2.5550   50.5880 C.3     1  ZINC000624498741   -0.1300
     10 C10        -5.8218    3.7784   50.4725 C.3     1  ZINC000624498741    0.0900
     11 N11        -4.4562    3.4075   50.8518 N.am    1  ZINC000624498741   -0.5000
     12 C12        -4.0238    3.6429   52.1170 C.2     1  ZINC000624498741    0.1300
     13 C13        -2.7664    3.3093   52.4908 C.2     1  ZINC000624498741   -0.2300
     14 C14        -1.8963    2.7139   51.5668 C.2     1  ZINC000624498741   -0.0200
     15 C15        -2.3327    2.4779   50.2963 C.2     1  ZINC000624498741   -0.2400
     16 C16        -3.6460    2.8320   49.9432 C.2     1  ZINC000624498741    0.5100
     17 O17        -4.0495    2.6265   48.8096 O.2     1  ZINC000624498741   -0.5500
     18 N18        -8.0771    0.0763   51.3628 N.2     1  ZINC000624498741   -0.3700
     19 O19        -8.9757   -0.6420   51.7468 O.3     1  ZINC000624498741    0.0900
     20 C20       -11.0769   -2.0105   53.3727 C.ar    1  ZINC000624498741   -0.0200
     21 C21       -12.1087   -2.5474   54.1113 C.ar    1  ZINC000624498741   -0.1900
     22 C22       -12.6573   -1.8291   55.1663 C.ar    1  ZINC000624498741    0.1300
     23 O23       -13.6740   -2.3617   55.8917 O.3     1  ZINC000624498741   -0.3000
     24 C24       -13.3269   -3.3375   56.8762 C.3     1  ZINC000624498741    0.6000
     25 F25       -13.9979   -3.0540   58.0706 F       1  ZINC000624498741   -0.1600
     26 F26       -13.6971   -4.6085   56.4238 F       1  ZINC000624498741   -0.1300
     27 F27       -11.9460   -3.3053   57.0981 F       1  ZINC000624498741   -0.1600
     28 H28       -12.2394   -0.0153   57.5362 H       1  ZINC000624498741    0.0800
     29 H29       -12.7036    1.2818   56.4091 H       1  ZINC000624498741    0.0800
     30 H30       -13.8261   -0.0617   56.7309 H       1  ZINC000624498741    0.0800
     31 H31       -10.7677    0.9639   54.9835 H       1  ZINC000624498741    0.1500
     32 H32        -7.1870    3.0243   52.6410 H       1  ZINC000624498741    0.1000
     33 H33        -5.9098    1.8025   52.4309 H       1  ZINC000624498741    0.1000
     34 H34        -6.3017    1.7260   50.0270 H       1  ZINC000624498741    0.0800
     35 H35        -7.7165    2.7950   50.1831 H       1  ZINC000624498741    0.0800
     36 H36        -5.8277    4.1401   49.4443 H       1  ZINC000624498741    0.1100
     37 H37        -6.1825    4.5643   51.1362 H       1  ZINC000624498741    0.1000
     38 H38        -4.6900    4.1012   52.8328 H       1  ZINC000624498741    0.1600
     39 H39        -2.4335    3.5021   53.5000 H       1  ZINC000624498741    0.1500
     40 H40        -0.8914    2.4453   51.8577 H       1  ZINC000624498741    0.1400
     41 H41        -1.6770    2.0200   49.5703 H       1  ZINC000624498741    0.1500
     42 H42       -10.6485   -2.5711   52.5550 H       1  ZINC000624498741    0.1500
     43 H43       -12.4890   -3.5296   53.8721 H       1  ZINC000624498741    0.1500
@<TRIPOS>BOND
     1     1     2    1
     2     1    28    1
     3     1    29    1
     4     1    30    1
     5     2    22   ar
     6     2     3   ar
     7     3     4   ar
     8     3    31    1
     9     4     5    1
    10     4    20   ar
    11     5    19    1
    12     5     6    2
    13     6     7    1
    14     7     8    1
    15     7    18    2
    16     8     9    1
    17     8    32    1
    18     8    33    1
    19     9    10    1
    20     9    34    1
    21     9    35    1
    22    10    11    1
    23    10    36    1
    24    10    37    1
    25    11    16   am
    26    11    12    1
    27    12    13    2
    28    12    38    1
    29    13    14    1
    30    13    39    1
    31    14    15    2
    32    14    40    1
    33    15    16    1
    34    15    41    1
    35    16    17    2
    36    18    19    1
    37    20    21   ar
    38    20    42    1
    39    21    22   ar
    40    21    43    1
    41    22    23    1
    42    23    24    1
    43    24    25    1
    44    24    26    1
    45    24    27    1
@<TRIPOS>SUBSTRUCTURE
     1 ZINC000624498741        1 TEMP              0 ****  ****    0 ROOT


##########                                Name:    ZINC000675319328
##########                DOCK_Rotatable_Bonds:                   7
##########                         Heavy_Atoms:                  26
##########                    Molecular_Weight:             363.475
##########                DOCK_Rotatable_Bonds:                   7
##########                       Formal_Charge:          -0.0200007
##########                     HBond_Acceptors:                   6
##########                        HBond_Donors:                   1
##########                         Heavy_Atoms:                  26
##########                          Grid_Score:          -31.738602
##########                     Grid_vdw_energy:          -31.723291
##########                      Grid_es_energy:           -0.015310
##########           Internal_energy_repulsive:           19.279085

@<TRIPOS>MOLECULE
ZINC000675319328
 56 58 1 0 0
SMALL
USER_CHARGES


@<TRIPOS>ATOM
      1 C1         -7.5517    2.8749   54.2161 C.3     1  ZINC000675319328   -0.1600
      2 C2         -7.7818    1.9617   53.0104 C.3     1  ZINC000675319328    0.1600
      3 H3         -7.0899    1.1206   53.0543 H       1  ZINC000675319328    0.0900
      4 C4         -7.5447    2.7502   51.7208 C.3     1  ZINC000675319328   -0.1200
      5 C5         -6.0415    2.9396   51.5079 C.3     1  ZINC000675319328   -0.1200
      6 H6         -5.6000    3.4896   52.3390 H       1  ZINC000675319328    0.0800
      7 C7         -5.3341    1.5708   51.3130 C.3     1  ZINC000675319328   -0.1500
      8 C8         -4.1219    1.9875   50.4425 C.3     1  ZINC000675319328    0.0500
      9 O9         -4.6210    3.0153   49.5719 O.3     1  ZINC000675319328   -0.3900
     10 C10        -5.7620    3.6522   50.1672 C.3     1  ZINC000675319328    0.0500
     11 N11        -9.1590    1.4627   53.0314 N.am    1  ZINC000675319328   -0.7400
     12 C12        -9.4273    0.2074   52.6205 C.2     1  ZINC000675319328    0.7000
     13 O13        -8.5262   -0.5108   52.2325 O.2     1  ZINC000675319328   -0.5900
     14 N14       -10.6943   -0.2517   52.6399 N.am    1  ZINC000675319328   -0.6200
     15 C15       -10.9567   -1.6308   52.1838 C.3     1  ZINC000675319328    0.1300
     16 C16       -11.9697   -2.3389   53.0991 C.3     1  ZINC000675319328   -0.1300
     17 C17       -11.6893   -1.9790   54.5415 C.3     1  ZINC000675319328    0.0700
     18 N18       -12.4958   -0.8168   54.9100 N.3     1  ZINC000675319328   -0.5500
     19 C19       -12.9371   -0.9041   56.3084 C.3     1  ZINC000675319328    0.1000
     20 C20       -11.7334   -0.9988   57.2101 C.ar    1  ZINC000675319328   -0.0900
     21 C21       -11.2831   -2.2354   57.6334 C.ar    1  ZINC000675319328   -0.0900
     22 C22       -10.1793   -2.3234   58.4603 C.ar    1  ZINC000675319328   -0.1500
     23 C23        -9.5241   -1.1726   58.8644 C.ar    1  ZINC000675319328    0.1000
     24 F24        -8.4447   -1.2576   59.6724 F       1  ZINC000675319328   -0.1400
     25 C25        -9.9757    0.0653   58.4394 C.ar    1  ZINC000675319328   -0.1500
     26 C26       -11.0768    0.1506   57.6086 C.ar    1  ZINC000675319328   -0.0700
     27 C27       -11.9323    0.4511   54.6344 C.3     1  ZINC000675319328    0.0500
     28 C28       -11.7460    0.6252   53.1131 C.3     1  ZINC000675319328    0.1100
     29 H29        -7.7206    2.3131   55.1349 H       1  ZINC000675319328    0.0600
     30 H30        -6.5271    3.2462   54.2005 H       1  ZINC000675319328    0.0700
     31 H31        -8.2436    3.7160   54.1722 H       1  ZINC000675319328    0.0500
     32 H32        -7.9649    2.2021   50.8774 H       1  ZINC000675319328    0.0700
     33 H33        -8.0266    3.7248   51.7971 H       1  ZINC000675319328    0.0900
     34 H34        -5.0086    1.1574   52.2675 H       1  ZINC000675319328    0.0800
     35 H35        -5.9765    0.8687   50.7815 H       1  ZINC000675319328    0.0800
     36 H36        -3.3219    2.3793   51.0706 H       1  ZINC000675319328    0.0600
     37 H37        -3.7650    1.1384   49.8596 H       1  ZINC000675319328    0.0900
     38 H38        -6.6262    3.5513   49.5106 H       1  ZINC000675319328    0.0700
     39 H39        -5.5485    4.7071   50.3399 H       1  ZINC000675319328    0.0700
     40 H40        -9.8778    2.0356   53.3410 H       1  ZINC000675319328    0.3900
     41 H41       -11.3525   -1.6018   51.1686 H       1  ZINC000675319328    0.0600
     42 H42       -10.0217   -2.1913   52.1853 H       1  ZINC000675319328    0.0900
     43 H43       -12.9791   -2.0230   52.8360 H       1  ZINC000675319328    0.0800
     44 H44       -11.8825   -3.4177   52.9707 H       1  ZINC000675319328    0.0800
     45 H45       -11.9480   -2.8207   55.1839 H       1  ZINC000675319328    0.0700
     46 H46       -10.6321   -1.7411   54.6588 H       1  ZINC000675319328    0.0400
     47 H47       -13.5133   -0.0148   56.5637 H       1  ZINC000675319328    0.0900
     48 H48       -13.5591   -1.7897   56.4385 H       1  ZINC000675319328    0.0400
     49 H49       -11.7943   -3.1329   57.3180 H       1  ZINC000675319328    0.1300
     50 H50        -9.8281   -3.2896   58.7914 H       1  ZINC000675319328    0.1400
     51 H51        -9.4657    0.9638   58.7543 H       1  ZINC000675319328    0.1400
     52 H52       -11.4291    1.1161   57.2767 H       1  ZINC000675319328    0.1300
     53 H53       -12.5947    1.2308   55.0106 H       1  ZINC000675319328    0.0900
     54 H54       -10.9640    0.5317   55.1283 H       1  ZINC000675319328    0.0300
     55 H55       -11.4778    1.6593   52.8966 H       1  ZINC000675319328    0.0700
     56 H56       -12.6770    0.3782   52.6030 H       1  ZINC000675319328    0.0900
@<TRIPOS>BOND
     1     1     2    1
     2     1    29    1
     3     1    30    1
     4     1    31    1
     5     2     3    1
     6     2     4    1
     7     2    11    1
     8     4     5    1
     9     4    32    1
    10     4    33    1
    11     5     6    1
    12     5    10    1
    13     5     7    1
    14     7     8    1
    15     7    34    1
    16     7    35    1
    17     8     9    1
    18     8    36    1
    19     8    37    1
    20     9    10    1
    21    10    38    1
    22    10    39    1
    23    11    12   am
    24    11    40    1
    25    12    13    2
    26    12    14   am
    27    14    28    1
    28    14    15    1
    29    15    16    1
    30    15    41    1
    31    15    42    1
    32    16    17    1
    33    16    43    1
    34    16    44    1
    35    17    18    1
    36    17    45    1
    37    17    46    1
    38    18    19    1
    39    18    27    1
    40    19    20    1
    41    19    47    1
    42    19    48    1
    43    20    26   ar
    44    20    21   ar
    45    21    22   ar
    46    21    49    1
    47    22    23   ar
    48    22    50    1
    49    23    24    1
    50    23    25   ar
    51    25    26   ar
    52    25    51    1
    53    26    52    1
    54    27    28    1
    55    27    53    1
    56    27    54    1
    57    28    55    1
    58    28    56    1
@<TRIPOS>SUBSTRUCTURE
     1 ZINC000675319328        1 TEMP              0 ****  ****    0 ROOT


##########                                Name:    ZINC001018437438
##########                DOCK_Rotatable_Bonds:                   8
##########                         Heavy_Atoms:                  24
##########                    Molecular_Weight:              333.39
##########                DOCK_Rotatable_Bonds:                   8
##########                       Formal_Charge:        -4.17233e-07
##########                     HBond_Acceptors:                   8
##########                        HBond_Donors:                   4
##########                         Heavy_Atoms:                  24
##########                          Grid_Score:          -31.715672
##########                     Grid_vdw_energy:          -30.436354
##########                      Grid_es_energy:           -1.279317
##########           Internal_energy_repulsive:           91.362190

@<TRIPOS>MOLECULE
ZINC001018437438
 47 49 1 0 0
SMALL
USER_CHARGES


@<TRIPOS>ATOM
      1 C1         -1.6958    3.9578   50.8223 C.3     1  ZINC001018437438   -0.1400
      2 C2         -3.2161    3.8708   50.9691 C.3     1  ZINC001018437438    0.1400
      3 H3         -3.6681    4.8116   50.6547 H       1  ZINC001018437438    0.0700
      4 C4         -3.7515    2.7283   50.1003 C.3     1  ZINC001018437438   -0.1300
      5 C5         -5.2504    2.5565   50.3571 C.3     1  ZINC001018437438   -0.1300
      6 C6         -5.4797    2.1944   51.8263 C.3     1  ZINC001018437438    0.1300
      7 H7         -4.9428    1.2757   52.0626 H       1  ZINC001018437438    0.1000
      8 N8         -6.9120    1.9987   52.0639 N.am    1  ZINC001018437438   -0.7200
      9 C9         -7.4646    0.7824   51.8857 C.2     1  ZINC001018437438    0.6000
     10 O10        -6.7739   -0.1531   51.5291 O.2     1  ZINC001018437438   -0.5100
     11 C11        -8.9037    0.5862   52.1226 C.2     1  ZINC001018437438   -0.0400
     12 C12        -9.5635   -0.6209   52.2747 C.2     1  ZINC001018437438   -0.1400
     13 C13       -10.9048   -0.2866   52.4753 C.2     1  ZINC001018437438    0.0600
     14 C14       -12.0376   -1.2560   52.6941 C.3     1  ZINC001018437438   -0.0800
     15 C15       -11.6929   -2.6226   53.2895 C.3     1  ZINC001018437438   -0.1700
     16 C16       -12.4212   -1.5797   54.1396 C.3     1  ZINC001018437438   -0.1600
     17 N17       -11.0029    1.0179   52.4403 N.2     1  ZINC001018437438   -0.2600
     18 N18        -9.8550    1.5592   52.2424 N.pl3   1  ZINC001018437438   -0.3800
     19 C19        -4.9640    3.3308   52.7147 C.3     1  ZINC001018437438    0.1000
     20 N20        -3.5610    3.6034   52.3720 N.am    1  ZINC001018437438   -0.6100
     21 C21        -2.6087    3.6029   53.3256 C.2     1  ZINC001018437438    0.5200
     22 O22        -1.4537    3.8246   53.0293 O.2     1  ZINC001018437438   -0.4800
     23 C23        -2.9789    3.3268   54.7602 C.3     1  ZINC001018437438   -0.1700
     24 C24        -3.8087    4.4665   55.2930 C.2     1  ZINC001018437438    0.5200
     25 N25        -4.7281    4.2397   56.2521 N.am    1  ZINC001018437438   -0.8600
     26 O26        -3.6491    5.5875   54.8588 O.2     1  ZINC001018437438   -0.5000
     27 H27        -1.2391    3.0559   51.2301 H       1  ZINC001018437438    0.0700
     28 H28        -1.4373    4.0507   49.7675 H       1  ZINC001018437438    0.0500
     29 H29        -1.3276    4.8286   51.3646 H       1  ZINC001018437438    0.0800
     30 H30        -3.5872    2.9633   49.0486 H       1  ZINC001018437438    0.0900
     31 H31        -3.2310    1.8046   50.3528 H       1  ZINC001018437438    0.0700
     32 H32        -5.7672    3.4885   50.1279 H       1  ZINC001018437438    0.0700
     33 H33        -5.6389    1.7605   49.7220 H       1  ZINC001018437438    0.0800
     34 H34        -7.4626    2.7444   52.3494 H       1  ZINC001018437438    0.4000
     35 H35        -9.1330   -1.6109   52.2445 H       1  ZINC001018437438    0.1700
     36 H36       -12.8401   -1.2154   51.9576 H       1  ZINC001018437438    0.1200
     37 H37       -12.2685   -3.4816   52.9445 H       1  ZINC001018437438    0.1000
     38 H38       -10.6467   -2.8206   53.5228 H       1  ZINC001018437438    0.1000
     39 H39       -11.8542   -1.0914   54.9321 H       1  ZINC001018437438    0.1000
     40 H40       -13.4759   -1.7524   54.3537 H       1  ZINC001018437438    0.1000
     41 H41        -9.6899    2.5130   52.1806 H       1  ZINC001018437438    0.4400
     42 H42        -5.5603    4.2271   52.5443 H       1  ZINC001018437438    0.0700
     43 H43        -5.0339    3.0365   53.7619 H       1  ZINC001018437438    0.0900
     44 H44        -3.5535    2.4022   54.8155 H       1  ZINC001018437438    0.1200
     45 H45        -2.0723    3.2274   55.3568 H       1  ZINC001018437438    0.1200
     46 H46        -5.2630    4.9728   56.5944 H       1  ZINC001018437438    0.4000
     47 H47        -4.8547    3.3431   56.6001 H       1  ZINC001018437438    0.4000
@<TRIPOS>BOND
     1     1     2    1
     2     1    27    1
     3     1    28    1
     4     1    29    1
     5     2     3    1
     6     2    20    1
     7     2     4    1
     8     4     5    1
     9     4    30    1
    10     4    31    1
    11     5     6    1
    12     5    32    1
    13     5    33    1
    14     6     7    1
    15     6     8    1
    16     6    19    1
    17     8     9   am
    18     8    34    1
    19     9    10    2
    20     9    11    1
    21    11    18    1
    22    11    12    2
    23    12    13    1
    24    12    35    1
    25    13    14    1
    26    13    17    2
    27    14    16    1
    28    14    15    1
    29    14    36    1
    30    15    16    1
    31    15    37    1
    32    15    38    1
    33    16    39    1
    34    16    40    1
    35    17    18    1
    36    18    41    1
    37    19    20    1
    38    19    42    1
    39    19    43    1
    40    20    21   am
    41    21    22    2
    42    21    23    1
    43    23    24    1
    44    23    44    1
    45    23    45    1
    46    24    25   am
    47    24    26    2
    48    25    46    1
    49    25    47    1
@<TRIPOS>SUBSTRUCTURE
     1 ZINC001018437438        1 TEMP              0 ****  ****    0 ROOT


##########                                Name:    ZINC000502834785
##########                DOCK_Rotatable_Bonds:                   9
##########                         Heavy_Atoms:                  26
##########                    Molecular_Weight:             356.468
##########                DOCK_Rotatable_Bonds:                   9
##########                       Formal_Charge:           0.0199998
##########                     HBond_Acceptors:                   6
##########                        HBond_Donors:                   2
##########                         Heavy_Atoms:                  26
##########                          Grid_Score:          -31.692923
##########                     Grid_vdw_energy:          -31.200487
##########                      Grid_es_energy:           -0.492436
##########           Internal_energy_repulsive:           19.724890

@<TRIPOS>MOLECULE
ZINC000502834785
 54 56 1 0 0
SMALL
USER_CHARGES


@<TRIPOS>ATOM
      1 C1        -10.5430   -1.0088   61.0132 C.3     1  ZINC000502834785   -0.1800
      2 C2        -10.1813   -1.0796   59.5282 C.3     1  ZINC000502834785    0.0800
      3 C3         -8.7371   -0.6139   59.3323 C.3     1  ZINC000502834785   -0.1500
      4 O4        -10.3139   -2.4265   59.0695 O.3     1  ZINC000502834785   -0.3800
      5 C5        -11.5977   -2.7297   58.5200 C.3     1  ZINC000502834785    0.1000
      6 C6        -11.5710   -2.5095   57.0295 C.ar    1  ZINC000502834785   -0.0800
      7 C7        -10.9771   -3.4451   56.2031 C.ar    1  ZINC000502834785   -0.1000
      8 C8        -10.9527   -3.2431   54.8359 C.ar    1  ZINC000502834785   -0.1000
      9 C9        -11.5224   -2.1057   54.2949 C.ar    1  ZINC000502834785   -0.1000
     10 C10       -11.4952   -1.8852   52.8043 C.3     1  ZINC000502834785    0.1600
     11 N11       -10.3360   -1.0610   52.4537 N.am    1  ZINC000502834785   -0.7300
     12 C12       -10.4241    0.2829   52.5062 C.2     1  ZINC000502834785    0.5100
     13 O13       -11.4625    0.8098   52.8452 O.2     1  ZINC000502834785   -0.5200
     14 C14        -9.2321    1.1308   52.1438 C.3     1  ZINC000502834785    0.0300
     15 N15        -8.2716    1.1259   53.2553 N.3     1  ZINC000502834785   -0.5000
     16 C16        -8.8731    1.7001   54.4779 C.3     1  ZINC000502834785    0.0500
     17 C17        -7.7025    2.4173   55.1953 C.3     1  ZINC000502834785   -0.1300
     18 C18        -6.9059    2.9941   53.9955 C.3     1  ZINC000502834785   -0.1300
     19 C19        -7.0661    1.9037   52.9154 C.3     1  ZINC000502834785    0.1500
     20 H20        -6.1924    1.2519   52.9140 H       1  ZINC000502834785    0.1100
     21 C21        -7.2299    2.5439   51.5610 C.2     1  ZINC000502834785    0.0600
     22 N22        -6.7270    2.1011   50.4373 N.2     1  ZINC000502834785   -0.2900
     23 N23        -7.1080    2.9766   49.4122 N.pl3   1  ZINC000502834785   -0.4800
     24 C24        -7.8554    3.9575   49.9602 C.2     1  ZINC000502834785    0.0600
     25 C25        -7.9509    3.7108   51.2873 C.2     1  ZINC000502834785   -0.2600
     26 C26       -12.1174   -1.1708   55.1211 C.ar    1  ZINC000502834785   -0.1000
     27 C27       -12.1453   -1.3746   56.4881 C.ar    1  ZINC000502834785   -0.1000
     28 H28       -11.5718   -1.3406   61.1528 H       1  ZINC000502834785    0.0600
     29 H29        -9.8728   -1.6538   61.5816 H       1  ZINC000502834785    0.0600
     30 H30       -10.4418    0.0185   61.3632 H       1  ZINC000502834785    0.0700
     31 H31       -10.8514   -0.4346   58.9599 H       1  ZINC000502834785    0.0600
     32 H32        -8.0671   -1.2589   59.9006 H       1  ZINC000502834785    0.0600
     33 H33        -8.4796   -0.6643   58.2744 H       1  ZINC000502834785    0.0600
     34 H34        -8.6361    0.4134   59.6822 H       1  ZINC000502834785    0.0700
     35 H35       -11.8459   -3.7703   58.7292 H       1  ZINC000502834785    0.0600
     36 H36       -12.3482   -2.0797   58.9700 H       1  ZINC000502834785    0.0600
     37 H37       -10.5320   -4.3337   56.6258 H       1  ZINC000502834785    0.1300
     38 H38       -10.4880   -3.9736   54.1903 H       1  ZINC000502834785    0.1300
     39 H39       -11.4243   -2.8469   52.2961 H       1  ZINC000502834785    0.0800
     40 H40       -12.4089   -1.3774   52.4954 H       1  ZINC000502834785    0.0800
     41 H41        -9.5050   -1.4824   52.1837 H       1  ZINC000502834785    0.4000
     42 H42        -8.7562    0.7258   51.2507 H       1  ZINC000502834785    0.1000
     43 H43        -9.5585    2.1525   51.9501 H       1  ZINC000502834785    0.0800
     44 H44        -9.6534    2.4150   54.2170 H       1  ZINC000502834785    0.0400
     45 H45        -9.2776    0.9090   55.1093 H       1  ZINC000502834785    0.1000
     46 H46        -8.0701    3.2158   55.8400 H       1  ZINC000502834785    0.0800
     47 H47        -7.0978    1.7083   55.7607 H       1  ZINC000502834785    0.0800
     48 H48        -7.3415    3.9355   53.6605 H       1  ZINC000502834785    0.0800
     49 H49        -5.8560    3.1257   54.2576 H       1  ZINC000502834785    0.0800
     50 H50        -6.8757    2.8925   48.4742 H       1  ZINC000502834785    0.4400
     51 H51        -8.3010    4.7882   49.4333 H       1  ZINC000502834785    0.1800
     52 H52        -8.4843    4.3121   52.0086 H       1  ZINC000502834785    0.1500
     53 H53       -12.5629   -0.2823   54.6985 H       1  ZINC000502834785    0.1300
     54 H54       -12.6102   -0.6442   57.1336 H       1  ZINC000502834785    0.1200
@<TRIPOS>BOND
     1     1     2    1
     2     1    28    1
     3     1    29    1
     4     1    30    1
     5     2     3    1
     6     2     4    1
     7     2    31    1
     8     3    32    1
     9     3    33    1
    10     3    34    1
    11     4     5    1
    12     5     6    1
    13     5    35    1
    14     5    36    1
    15     6    27   ar
    16     6     7   ar
    17     7     8   ar
    18     7    37    1
    19     8     9   ar
    20     8    38    1
    21     9    10    1
    22     9    26   ar
    23    10    11    1
    24    10    39    1
    25    10    40    1
    26    11    12   am
    27    11    41    1
    28    12    13    2
    29    12    14    1
    30    14    15    1
    31    14    42    1
    32    14    43    1
    33    15    19    1
    34    15    16    1
    35    16    17    1
    36    16    44    1
    37    16    45    1
    38    17    18    1
    39    17    46    1
    40    17    47    1
    41    18    19    1
    42    18    48    1
    43    18    49    1
    44    19    20    1
    45    19    21    1
    46    21    25    1
    47    21    22    2
    48    22    23    1
    49    23    24    1
    50    23    50    1
    51    24    25    2
    52    24    51    1
    53    25    52    1
    54    26    27   ar
    55    26    53    1
    56    27    54    1
@<TRIPOS>SUBSTRUCTURE
     1 ZINC000502834785        1 TEMP              0 ****  ****    0 ROOT


##########                                Name:    ZINC001004075025
##########                DOCK_Rotatable_Bonds:                   8
##########                         Heavy_Atoms:                  25
##########                    Molecular_Weight:              349.43
##########                DOCK_Rotatable_Bonds:                   8
##########                       Formal_Charge:         -0.00999999
##########                     HBond_Acceptors:                   7
##########                        HBond_Donors:                   1
##########                         Heavy_Atoms:                  25
##########                          Grid_Score:          -31.662220
##########                     Grid_vdw_energy:          -30.882496
##########                      Grid_es_energy:           -0.779724
##########           Internal_energy_repulsive:            8.851533

@<TRIPOS>MOLECULE
ZINC001004075025
 52 54 1 0 0
SMALL
USER_CHARGES


@<TRIPOS>ATOM
      1 C1        -13.4142   -4.4308   56.6416 C.3     1  ZINC001004075025   -0.1500
      2 C2        -13.4886   -2.9112   56.4790 C.3     1  ZINC001004075025   -0.1200
      3 C3        -12.2346   -2.4136   55.7575 C.3     1  ZINC001004075025    0.0800
      4 H4        -11.3394   -2.7865   56.2550 H       1  ZINC001004075025    0.0700
      5 C5        -12.2529   -2.8640   54.2750 C.3     1  ZINC001004075025   -0.1500
      6 C6        -11.3428   -1.7847   53.6277 C.3     1  ZINC001004075025   -0.1400
      7 C7        -11.6722   -0.5318   54.4677 C.3     1  ZINC001004075025    0.0700
      8 H8        -12.4011    0.0848   53.9419 H       1  ZINC001004075025    0.1100
      9 C9        -10.4155    0.2619   54.7161 C.2     1  ZINC001004075025    0.5300
     10 O10       -10.1066    0.5701   55.8477 O.2     1  ZINC001004075025   -0.5200
     11 N11        -9.6349    0.6295   53.6807 N.am    1  ZINC001004075025   -0.6500
     12 C12        -9.6672    0.4650   52.2196 C.3     1  ZINC001004075025    0.1100
     13 C13        -8.1358    0.5701   52.2284 C.3     1  ZINC001004075025   -0.1400
     14 C14        -7.5569    1.3924   51.0753 C.3     1  ZINC001004075025    0.1300
     15 N15        -6.1405    1.6644   51.3324 N.am    1  ZINC001004075025   -0.7200
     16 C16        -5.4272    2.4043   50.4604 C.2     1  ZINC001004075025    0.6000
     17 O17        -5.9598    2.8473   49.4610 O.2     1  ZINC001004075025   -0.5300
     18 C18        -4.0017    2.6764   50.7183 C.2     1  ZINC001004075025   -0.2700
     19 C19        -3.4466    3.5583   51.6132 C.2     1  ZINC001004075025    0.0700
     20 C20        -4.1847    4.4714   52.5578 C.3     1  ZINC001004075025   -0.0300
     21 C21        -4.0722    3.9287   53.9839 C.3     1  ZINC001004075025   -0.1500
     22 C22        -3.5728    5.8724   52.4955 C.3     1  ZINC001004075025   -0.1500
     23 O23        -2.1231    3.4457   51.4796 O.3     1  ZINC001004075025    0.1000
     24 N24        -1.7974    2.6359   50.6465 N.2     1  ZINC001004075025   -0.3500
     25 C25        -2.8224    2.0660   50.0854 C.2     1  ZINC001004075025    0.0200
     26 C26        -8.3794    1.3771   53.5142 C.3     1  ZINC001004075025    0.1100
     27 O27       -12.2202   -0.9778   55.7153 O.3     1  ZINC001004075025   -0.3400
     28 H28       -14.3076   -4.7854   57.1557 H       1  ZINC001004075025    0.0600
     29 H29       -13.3506   -4.8985   55.6592 H       1  ZINC001004075025    0.0500
     30 H30       -12.5315   -4.6909   57.2257 H       1  ZINC001004075025    0.0600
     31 H31       -14.3714   -2.6511   55.8949 H       1  ZINC001004075025    0.0800
     32 H32       -13.5523   -2.4435   57.4615 H       1  ZINC001004075025    0.0700
     33 H33       -11.8234   -3.8593   54.1615 H       1  ZINC001004075025    0.0900
     34 H34       -13.2620   -2.8244   53.8648 H       1  ZINC001004075025    0.0900
     35 H35       -10.2912   -2.0533   53.7276 H       1  ZINC001004075025    0.0800
     36 H36       -11.6074   -1.6307   52.5816 H       1  ZINC001004075025    0.0900
     37 H37       -10.0335   -0.5108   51.9006 H       1  ZINC001004075025    0.0900
     38 H38       -10.1559    1.2896   51.7007 H       1  ZINC001004075025    0.0900
     39 H39        -7.6235   -0.3801   52.3796 H       1  ZINC001004075025    0.1100
     40 H40        -7.6565    0.8337   50.1447 H       1  ZINC001004075025    0.0800
     41 H41        -8.0987    2.3347   50.9931 H       1  ZINC001004075025    0.0800
     42 H42        -5.7160    1.3119   52.1303 H       1  ZINC001004075025    0.4000
     43 H43        -5.2348    4.5205   52.2695 H       1  ZINC001004075025    0.1300
     44 H44        -3.0222    3.8797   54.2722 H       1  ZINC001004075025    0.0600
     45 H45        -4.6062    4.5892   54.6672 H       1  ZINC001004075025    0.0700
     46 H46        -4.5082    2.9307   54.0283 H       1  ZINC001004075025    0.0600
     47 H47        -2.5227    5.8233   52.7838 H       1  ZINC001004075025    0.0600
     48 H48        -3.6529    6.2590   51.4795 H       1  ZINC001004075025    0.0600
     49 H49        -4.1067    6.5328   53.1787 H       1  ZINC001004075025    0.0700
     50 H50        -2.8106    1.3101   49.3140 H       1  ZINC001004075025    0.2000
     51 H51        -8.5250    2.4426   53.3369 H       1  ZINC001004075025    0.0900
     52 H52        -7.6493    1.1755   54.2980 H       1  ZINC001004075025    0.0800
@<TRIPOS>BOND
     1     1     2    1
     2     1    28    1
     3     1    29    1
     4     1    30    1
     5     2     3    1
     6     2    31    1
     7     2    32    1
     8     3     4    1
     9     3    27    1
    10     3     5    1
    11     5     6    1
    12     5    33    1
    13     5    34    1
    14     6     7    1
    15     6    35    1
    16     6    36    1
    17     7     8    1
    18     7     9    1
    19     7    27    1
    20     9    10    2
    21     9    11   am
    22    11    26    1
    23    11    12    1
    24    12    13    1
    25    12    37    1
    26    12    38    1
    27    13    14    1
    28    13    26    1
    29    13    39    1
    30    14    15    1
    31    14    40    1
    32    14    41    1
    33    15    16   am
    34    15    42    1
    35    16    17    2
    36    16    18    1
    37    18    25    1
    38    18    19    2
    39    19    20    1
    40    19    23    1
    41    20    21    1
    42    20    22    1
    43    20    43    1
    44    21    44    1
    45    21    45    1
    46    21    46    1
    47    22    47    1
    48    22    48    1
    49    22    49    1
    50    23    24    1
    51    24    25    2
    52    25    50    1
    53    26    51    1
    54    26    52    1
@<TRIPOS>SUBSTRUCTURE
     1 ZINC001004075025        1 TEMP              0 ****  ****    0 ROOT


##########                                Name:    ZINC000505965769
##########                DOCK_Rotatable_Bonds:                   9
##########                         Heavy_Atoms:                  29
##########                    Molecular_Weight:              419.88
##########                DOCK_Rotatable_Bonds:                   9
##########                       Formal_Charge:               -0.02
##########                     HBond_Acceptors:                   7
##########                        HBond_Donors:                   1
##########                         Heavy_Atoms:                  29
##########                          Grid_Score:          -31.656429
##########                     Grid_vdw_energy:          -30.871483
##########                      Grid_es_energy:           -0.784947
##########           Internal_energy_repulsive:           14.173557

@<TRIPOS>MOLECULE
ZINC000505965769
 52 54 1 0 0
SMALL
USER_CHARGES


@<TRIPOS>ATOM
      1 C1         -1.4181    3.6177   50.6913 C.3     1  ZINC000505965769    0.0200
      2 O2         -2.2955    2.5152   50.4528 O.3     1  ZINC000505965769   -0.3100
      3 C3         -3.5328    2.5822   51.0050 C.ar    1  ZINC000505965769    0.1800
      4 C4         -3.6783    2.5300   52.3873 C.ar    1  ZINC000505965769   -0.2200
      5 C5         -4.9199    2.5971   52.9522 C.ar    1  ZINC000505965769   -0.0200
      6 C6         -6.0538    2.7189   52.1394 C.ar    1  ZINC000505965769   -0.2100
      7 C7         -7.3891    2.7917   52.7440 C.2     1  ZINC000505965769    0.3900
      8 O8         -7.9434    3.8642   52.8630 O.2     1  ZINC000505965769   -0.4400
      9 C9         -8.0718    1.5342   53.2169 C.3     1  ZINC000505965769   -0.1500
     10 C10        -9.1622    1.1396   52.2188 C.3     1  ZINC000505965769   -0.1300
     11 C11        -9.7990   -0.1544   52.6560 C.2     1  ZINC000505965769    0.5200
     12 O12        -9.6301   -1.1636   52.0050 O.2     1  ZINC000505965769   -0.5300
     13 N13       -10.5562   -0.1900   53.7704 N.am    1  ZINC000505965769   -0.7200
     14 C14       -11.1738   -1.4482   54.1964 C.3     1  ZINC000505965769    0.1900
     15 H15       -10.5735   -2.2861   53.8416 H       1  ZINC000505965769    0.1100
     16 C16       -11.2498   -1.4863   55.7010 C.ar    1  ZINC000505965769   -0.1000
     17 C17       -11.2629   -2.7008   56.3614 C.ar    1  ZINC000505965769   -0.0900
     18 C18       -11.3326   -2.7369   57.7411 C.ar    1  ZINC000505965769   -0.1500
     19 C19       -11.3888   -1.5562   58.4621 C.ar    1  ZINC000505965769    0.1000
     20 F20       -11.4565   -1.5903   59.8110 F       1  ZINC000505965769   -0.1400
     21 C21       -11.3751   -0.3404   57.7996 C.ar    1  ZINC000505965769   -0.1500
     22 C22       -11.3005   -0.3067   56.4201 C.ar    1  ZINC000505965769   -0.0600
     23 C23       -12.5841   -1.5477   53.6118 C.3     1  ZINC000505965769    0.0800
     24 H24       -13.0734   -2.4580   53.9583 H       1  ZINC000505965769    0.0700
     25 C25       -13.4194   -0.3042   54.0078 C.3     1  ZINC000505965769   -0.1500
     26 C26       -14.4676   -0.2759   52.8621 C.3     1  ZINC000505965769   -0.1600
     27 C27       -13.6515   -0.7948   51.6587 C.3     1  ZINC000505965769    0.0500
     28 O28       -12.5316   -1.5252   52.1764 O.3     1  ZINC000505965769   -0.3700
     29 C29        -5.9084    2.7716   50.7457 C.ar    1  ZINC000505965769    0.0500
     30 Cl30       -7.3069    2.9225   49.7285 Cl      1  ZINC000505965769   -0.0200
     31 C31        -4.6502    2.7083   50.1873 C.ar    1  ZINC000505965769   -0.1600
     32 H32        -1.2547    3.7267   51.7634 H       1  ZINC000505965769    0.0600
     33 H33        -0.4645    3.4372   50.1950 H       1  ZINC000505965769    0.1100
     34 H34        -1.8658    4.5302   50.2973 H       1  ZINC000505965769    0.0600
     35 H35        -2.8057    2.4357   53.0166 H       1  ZINC000505965769    0.1400
     36 H36        -5.0274    2.5558   54.0261 H       1  ZINC000505965769    0.1500
     37 H37        -7.3401    0.7299   53.2923 H       1  ZINC000505965769    0.1100
     38 H38        -8.5205    1.7100   54.1945 H       1  ZINC000505965769    0.1100
     39 H39        -9.9197    1.9225   52.1799 H       1  ZINC000505965769    0.1000
     40 H40        -8.7210    1.0117   51.2303 H       1  ZINC000505965769    0.1000
     41 H41       -10.6922    0.6175   54.2904 H       1  ZINC000505965769    0.4000
     42 H42       -11.2191   -3.6216   55.7988 H       1  ZINC000505965769    0.1300
     43 H43       -11.3435   -3.6858   58.2568 H       1  ZINC000505965769    0.1400
     44 H44       -11.4193    0.5812   58.3610 H       1  ZINC000505965769    0.1400
     45 H45       -11.2895    0.6415   55.9031 H       1  ZINC000505965769    0.1400
     46 H46       -13.8995   -0.4455   54.9761 H       1  ZINC000505965769    0.0700
     47 H47       -12.8075    0.5979   54.0028 H       1  ZINC000505965769    0.1000
     48 H48       -15.3010   -0.9431   53.0823 H       1  ZINC000505965769    0.0700
     49 H49       -14.8193    0.7401   52.6831 H       1  ZINC000505965769    0.0800
     50 H50       -14.2703   -1.4528   51.0485 H       1  ZINC000505965769    0.0700
     51 H51       -13.3011    0.0457   51.0596 H       1  ZINC000505965769    0.0700
     52 H52        -4.5326    2.7488   49.1145 H       1  ZINC000505965769    0.1500
@<TRIPOS>BOND
     1     1     2    1
     2     1    32    1
     3     1    33    1
     4     1    34    1
     5     2     3    1
     6     3    31   ar
     7     3     4   ar
     8     4     5   ar
     9     4    35    1
    10     5     6   ar
    11     5    36    1
    12     6     7    1
    13     6    29   ar
    14     7     8    2
    15     7     9    1
    16     9    10    1
    17     9    37    1
    18     9    38    1
    19    10    11    1
    20    10    39    1
    21    10    40    1
    22    11    12    2
    23    11    13   am
    24    13    14    1
    25    13    41    1
    26    14    15    1
    27    14    16    1
    28    14    23    1
    29    16    22   ar
    30    16    17   ar
    31    17    18   ar
    32    17    42    1
    33    18    19   ar
    34    18    43    1
    35    19    20    1
    36    19    21   ar
    37    21    22   ar
    38    21    44    1
    39    22    45    1
    40    23    24    1
    41    23    28    1
    42    23    25    1
    43    25    26    1
    44    25    46    1
    45    25    47    1
    46    26    27    1
    47    26    48    1
    48    26    49    1
    49    27    28    1
    50    27    50    1
    51    27    51    1
    52    29    30    1
    53    29    31   ar
    54    31    52    1
@<TRIPOS>SUBSTRUCTURE
     1 ZINC000505965769        1 TEMP              0 ****  ****    0 ROOT


##########                                Name:    ZINC001408567397
##########                DOCK_Rotatable_Bonds:                   9
##########                         Heavy_Atoms:                  24
##########                    Molecular_Weight:             336.434
##########                DOCK_Rotatable_Bonds:                   9
##########                       Formal_Charge:          -0.0199996
##########                     HBond_Acceptors:                   7
##########                        HBond_Donors:                   2
##########                         Heavy_Atoms:                  24
##########                          Grid_Score:          -31.623785
##########                     Grid_vdw_energy:          -30.718805
##########                      Grid_es_energy:           -0.904980
##########           Internal_energy_repulsive:           21.632214

@<TRIPOS>MOLECULE
ZINC001408567397
 52 53 1 0 0
SMALL
USER_CHARGES


@<TRIPOS>ATOM
      1 C1         -9.6975    1.7417   55.2353 C.3     1  ZINC001408567397   -0.0800
      2 C2        -10.4105    0.4153   55.2959 C.2     1  ZINC001408567397    0.0900
      3 N3        -10.7563   -0.2206   56.3857 N.2     1  ZINC001408567397   -0.2900
      4 N4        -11.3949   -1.4107   56.0140 N.pl3   1  ZINC001408567397   -0.4700
      5 C5        -11.4195   -1.4654   54.6659 C.2     1  ZINC001408567397    0.1100
      6 C6        -12.0117   -2.5723   53.8322 C.3     1  ZINC001408567397   -0.1000
      7 C7        -10.8220   -0.3455   54.1968 C.2     1  ZINC001408567397   -0.2200
      8 C8        -10.6268    0.0140   52.7465 C.3     1  ZINC001408567397   -0.0600
      9 C9         -9.2118   -0.3034   52.3363 C.2     1  ZINC001408567397    0.5100
     10 O10        -8.8357   -1.4557   52.2975 O.2     1  ZINC001408567397   -0.5300
     11 N11        -8.3642    0.6934   52.0128 N.am    1  ZINC001408567397   -0.7300
     12 C12        -6.9892    0.3847   51.6124 C.3     1  ZINC001408567397    0.1100
     13 C13        -6.0709    1.5429   52.0074 C.3     1  ZINC001408567397    0.1000
     14 N14        -5.8741    2.4252   50.8545 N.am    1  ZINC001408567397   -0.6200
     15 C15        -7.0113    2.7811   50.0021 C.3     1  ZINC001408567397    0.0700
     16 C16        -4.6471    2.9094   50.5781 C.2     1  ZINC001408567397    0.5100
     17 O17        -4.4847    3.6410   49.6246 O.2     1  ZINC001408567397   -0.5300
     18 C18        -3.4772    2.5420   51.4539 C.3     1  ZINC001408567397   -0.1300
     19 C19        -2.2303    3.2916   50.9803 C.3     1  ZINC001408567397   -0.1100
     20 H20        -2.1815    3.2660   49.8917 H       1  ZINC001408567397    0.0900
     21 C21        -2.2959    4.7462   51.4557 C.3     1  ZINC001408567397   -0.1200
     22 C22        -1.0080    5.4653   51.0431 C.3     1  ZINC001408567397   -0.1600
     23 C23         0.1940    4.7174   51.6257 C.3     1  ZINC001408567397    0.0600
     24 O24         0.1780    3.3635   51.1689 O.3     1  ZINC001408567397   -0.3800
     25 C25        -0.9810    2.6266   51.5641 C.3     1  ZINC001408567397    0.0600
     26 H26       -10.4308    2.5481   55.2227 H       1  ZINC001408567397    0.0800
     27 H27        -9.0546    1.8489   56.1089 H       1  ZINC001408567397    0.0700
     28 H28        -9.0917    1.7875   54.3303 H       1  ZINC001408567397    0.0800
     29 H29       -11.7556   -2.0778   56.6190 H       1  ZINC001408567397    0.4400
     30 H30       -13.0596   -2.3528   53.6284 H       1  ZINC001408567397    0.0800
     31 H31       -11.4670   -2.6497   52.8912 H       1  ZINC001408567397    0.0900
     32 H32       -11.9367   -3.5151   54.3741 H       1  ZINC001408567397    0.0700
     33 H33       -11.3204   -0.5608   52.1330 H       1  ZINC001408567397    0.1000
     34 H34       -10.8151    1.0786   52.6074 H       1  ZINC001408567397    0.1000
     35 H35        -8.6646    1.6151   52.0451 H       1  ZINC001408567397    0.4000
     36 H36        -6.6608   -0.5263   52.1128 H       1  ZINC001408567397    0.0700
     37 H37        -6.9487    0.2409   50.5327 H       1  ZINC001408567397    0.0700
     38 H38        -6.5260    2.1059   52.8222 H       1  ZINC001408567397    0.0800
     39 H39        -5.1078    1.1487   52.3317 H       1  ZINC001408567397    0.0900
     40 H40        -7.4822    3.6868   50.3839 H       1  ZINC001408567397    0.0600
     41 H41        -6.6620    2.9546   48.9842 H       1  ZINC001408567397    0.0800
     42 H42        -7.7355    1.9665   50.0037 H       1  ZINC001408567397    0.0800
     43 H43        -3.6956    2.8159   52.4860 H       1  ZINC001408567397    0.1000
     44 H44        -3.3006    1.4681   51.3926 H       1  ZINC001408567397    0.1000
     45 H45        -3.1525    5.2410   50.9980 H       1  ZINC001408567397    0.0700
     46 H46        -2.3958    4.7710   52.5408 H       1  ZINC001408567397    0.0600
     47 H47        -0.9334    5.4837   49.9558 H       1  ZINC001408567397    0.0700
     48 H48        -1.0222    6.4860   51.4254 H       1  ZINC001408567397    0.0700
     49 H49         1.1153    5.2001   51.2999 H       1  ZINC001408567397    0.0900
     50 H50         0.1398    4.7344   52.7143 H       1  ZINC001408567397    0.0500
     51 H51        -1.0514    2.6157   52.6518 H       1  ZINC001408567397    0.0400
     52 H52        -0.9052    1.6041   51.1943 H       1  ZINC001408567397    0.1100
@<TRIPOS>BOND
     1     1     2    1
     2     1    26    1
     3     1    27    1
     4     1    28    1
     5     2     7    1
     6     2     3    2
     7     3     4    1
     8     4     5    1
     9     4    29    1
    10     5     6    1
    11     5     7    2
    12     6    30    1
    13     6    31    1
    14     6    32    1
    15     7     8    1
    16     8     9    1
    17     8    33    1
    18     8    34    1
    19     9    10    2
    20     9    11   am
    21    11    12    1
    22    11    35    1
    23    12    13    1
    24    12    36    1
    25    12    37    1
    26    13    14    1
    27    13    38    1
    28    13    39    1
    29    14    15    1
    30    14    16   am
    31    15    40    1
    32    15    41    1
    33    15    42    1
    34    16    17    2
    35    16    18    1
    36    18    19    1
    37    18    43    1
    38    18    44    1
    39    19    20    1
    40    19    25    1
    41    19    21    1
    42    21    22    1
    43    21    45    1
    44    21    46    1
    45    22    23    1
    46    22    47    1
    47    22    48    1
    48    23    24    1
    49    23    49    1
    50    23    50    1
    51    24    25    1
    52    25    51    1
    53    25    52    1
@<TRIPOS>SUBSTRUCTURE
     1 ZINC001408567397        1 TEMP              0 ****  ****    0 ROOT


##########                                Name:    ZINC000458730620
##########                DOCK_Rotatable_Bonds:                   9
##########                         Heavy_Atoms:                  25
##########                    Molecular_Weight:              375.44
##########                DOCK_Rotatable_Bonds:                   9
##########                       Formal_Charge:        -1.86265e-07
##########                     HBond_Acceptors:                   9
##########                        HBond_Donors:                   3
##########                         Heavy_Atoms:                  25
##########                          Grid_Score:          -31.613199
##########                     Grid_vdw_energy:          -30.534792
##########                      Grid_es_energy:           -1.078408
##########           Internal_energy_repulsive:           53.594402

@<TRIPOS>MOLECULE
ZINC000458730620
 48 49 1 0 0
SMALL
USER_CHARGES


@<TRIPOS>ATOM
      1 C1        -13.0415    0.2535   54.3969 C.3     1  ZINC000458730620   -0.1600
      2 C2        -12.0107   -0.6267   53.6869 C.3     1  ZINC000458730620    0.2000
      3 C3        -12.6212   -1.1927   52.4033 C.3     1  ZINC000458730620   -0.1600
      4 N4        -10.8305    0.1750   53.3542 N.am    1  ZINC000458730620   -0.7400
      5 C5         -9.7776   -0.3989   52.7390 C.2     1  ZINC000458730620    0.7100
      6 O6         -9.8066   -1.5825   52.4615 O.2     1  ZINC000458730620   -0.5800
      7 N7         -8.6925    0.3389   52.4314 N.am    1  ZINC000458730620   -0.7500
      8 C8         -7.5488   -0.2846   51.7612 C.3     1  ZINC000458730620    0.1300
      9 C9         -6.5258    0.7913   51.3912 C.3     1  ZINC000458730620    0.1000
     10 N10        -6.5763    1.8730   52.3779 N.am    1  ZINC000458730620   -1.1100
     11 S11        -5.9116    3.3480   52.0241 S.o2    1  ZINC000458730620    2.7000
     12 O12        -6.4898    3.7641   50.7945 O.2     1  ZINC000458730620   -0.9400
     13 O13        -5.9843    4.1173   53.2167 O.2     1  ZINC000458730620   -0.9400
     14 C14        -4.1989    3.0853   51.7050 C.ar    1  ZINC000458730620   -0.7300
     15 C15        -3.2893    3.1193   52.7448 C.ar    1  ZINC000458730620    0.0400
     16 C16        -1.9454    2.9128   52.4959 C.ar    1  ZINC000458730620   -0.1800
     17 C17        -1.5091    2.6717   51.2043 C.ar    1  ZINC000458730620    0.1900
     18 F18        -0.1955    2.4695   50.9615 F       1  ZINC000458730620   -0.1200
     19 C19        -2.4193    2.6374   50.1618 C.ar    1  ZINC000458730620   -0.2100
     20 C20        -3.7653    2.8390   50.4129 C.ar    1  ZINC000458730620    0.2200
     21 F21        -4.6547    2.8058   49.3965 F       1  ZINC000458730620   -0.1100
     22 C22       -11.6021   -1.7778   54.6082 C.3     1  ZINC000458730620   -0.1100
     23 C23       -12.0588   -1.5929   56.0649 C.3     1  ZINC000458730620   -0.1400
     24 C24       -12.3862   -3.0954   56.0704 C.3     1  ZINC000458730620   -0.1400
     25 C25       -12.5536   -2.9843   54.5458 C.3     1  ZINC000458730620   -0.1400
     26 H26       -13.9437   -0.3270   54.5893 H       1  ZINC000458730620    0.0600
     27 H27       -12.6283    0.6068   55.3417 H       1  ZINC000458730620    0.0500
     28 H28       -13.2864    1.1075   53.7655 H       1  ZINC000458730620    0.0800
     29 H29       -12.9123   -0.3725   51.7470 H       1  ZINC000458730620    0.0800
     30 H30       -11.8869   -1.8197   51.8975 H       1  ZINC000458730620    0.0500
     31 H31       -13.4994   -1.7891   52.6509 H       1  ZINC000458730620    0.0600
     32 H32       -10.8069    1.1188   53.5766 H       1  ZINC000458730620    0.3900
     33 H33        -8.6688    1.2827   52.6539 H       1  ZINC000458730620    0.4000
     34 H34        -7.0867   -1.0103   52.4304 H       1  ZINC000458730620    0.0800
     35 H35        -7.8884   -0.7893   50.8567 H       1  ZINC000458730620    0.0800
     36 H36        -5.5270    0.3549   51.3813 H       1  ZINC000458730620    0.0900
     37 H37        -6.7581    1.1892   50.4034 H       1  ZINC000458730620    0.0700
     38 H38        -6.9991    1.7254   53.2382 H       1  ZINC000458730620    0.4300
     39 H39        -3.6288    3.3077   53.7526 H       1  ZINC000458730620    0.1700
     40 H40        -1.2354    2.9400   53.3093 H       1  ZINC000458730620    0.1600
     41 H41        -2.0798    2.4494   49.1539 H       1  ZINC000458730620    0.1600
     42 H42       -10.5502   -2.0458   54.5097 H       1  ZINC000458730620    0.1100
     43 H43       -11.2514   -1.3195   56.7443 H       1  ZINC000458730620    0.0700
     44 H44       -12.9360   -0.9544   56.1698 H       1  ZINC000458730620    0.0800
     45 H45       -11.5486   -3.7237   56.3731 H       1  ZINC000458730620    0.0800
     46 H46       -13.3105   -3.3389   56.5945 H       1  ZINC000458730620    0.0700
     47 H47       -13.5661   -2.7262   54.2353 H       1  ZINC000458730620    0.0800
     48 H48       -12.1457   -3.8342   53.9987 H       1  ZINC000458730620    0.0700
@<TRIPOS>BOND
     1     1     2    1
     2     1    26    1
     3     1    27    1
     4     1    28    1
     5     2     3    1
     6     2     4    1
     7     2    22    1
     8     3    29    1
     9     3    30    1
    10     3    31    1
    11     4     5   am
    12     4    32    1
    13     5     6    2
    14     5     7   am
    15     7     8    1
    16     7    33    1
    17     8     9    1
    18     8    34    1
    19     8    35    1
    20     9    10    1
    21     9    36    1
    22     9    37    1
    23    10    11   am
    24    10    38    1
    25    11    12    2
    26    11    13    2
    27    11    14    1
    28    14    20   ar
    29    14    15   ar
    30    15    16   ar
    31    15    39    1
    32    16    17   ar
    33    16    40    1
    34    17    18    1
    35    17    19   ar
    36    19    20   ar
    37    19    41    1
    38    20    21    1
    39    22    25    1
    40    22    23    1
    41    22    42    1
    42    23    24    1
    43    23    43    1
    44    23    44    1
    45    24    25    1
    46    24    45    1
    47    24    46    1
    48    25    47    1
    49    25    48    1
@<TRIPOS>SUBSTRUCTURE
     1 ZINC000458730620        1 TEMP              0 ****  ****    0 ROOT


##########                                Name:    ZINC000550217006
##########                DOCK_Rotatable_Bonds:                   7
##########                         Heavy_Atoms:                  27
##########                    Molecular_Weight:             367.404
##########                DOCK_Rotatable_Bonds:                   7
##########                       Formal_Charge:          0.00999951
##########                     HBond_Acceptors:                   7
##########                        HBond_Donors:                   3
##########                         Heavy_Atoms:                  27
##########                          Grid_Score:          -31.557482
##########                     Grid_vdw_energy:          -31.074131
##########                      Grid_es_energy:           -0.483350
##########           Internal_energy_repulsive:           12.303128

@<TRIPOS>MOLECULE
ZINC000550217006
 48 50 1 0 0
SMALL
USER_CHARGES


@<TRIPOS>ATOM
      1 C1        -10.2098    5.4861   49.6161 C.3     1  ZINC000550217006   -0.1500
      2 C2         -8.8805    4.7327   49.6977 C.3     1  ZINC000550217006    0.0500
      3 O3         -8.9906    3.6743   50.6514 O.3     1  ZINC000550217006   -0.3100
      4 C4         -7.8898    2.9013   50.8451 C.ar    1  ZINC000550217006    0.1400
      5 C5         -6.7229    3.1659   50.1432 C.ar    1  ZINC000550217006   -0.2100
      6 C6         -5.6048    2.3789   50.3423 C.ar    1  ZINC000550217006   -0.0800
      7 C7         -5.6486    1.3282   51.2397 C.ar    1  ZINC000550217006   -0.1600
      8 C8         -6.8108    1.0621   51.9404 C.ar    1  ZINC000550217006   -0.0700
      9 C9         -7.9293    1.8497   51.7495 C.ar    1  ZINC000550217006   -0.1200
     10 C10        -9.1953    1.5595   52.5137 C.3     1  ZINC000550217006   -0.0800
     11 C11        -9.4078    0.0464   52.5928 C.3     1  ZINC000550217006    0.1300
     12 N12       -10.6571   -0.2347   53.3044 N.am    1  ZINC000550217006   -0.7200
     13 C13       -11.2805   -1.4168   53.1302 C.2     1  ZINC000550217006    0.5600
     14 O14       -10.8072   -2.2490   52.3817 O.2     1  ZINC000550217006   -0.5300
     15 C15       -12.5422   -1.7017   53.8508 C.ar    1  ZINC000550217006   -0.0800
     16 C16       -13.4923   -0.6926   54.0248 C.ar    1  ZINC000550217006   -0.1000
     17 C17       -14.6608   -0.9606   54.6949 C.ar    1  ZINC000550217006   -0.0500
     18 C18       -14.9155   -2.2425   55.2098 C.ar    1  ZINC000550217006   -0.1300
     19 C19       -13.9710   -3.2534   55.0352 C.ar    1  ZINC000550217006    0.1800
     20 C20       -12.7866   -2.9747   54.3506 C.ar    1  ZINC000550217006   -0.0900
     21 N21       -14.1435   -4.5465   55.4986 N.am    1  ZINC000550217006   -0.6600
     22 C22       -14.6630   -4.8855   56.6746 C.2     1  ZINC000550217006    0.5100
     23 O23       -14.7161   -6.0584   56.9783 O.2     1  ZINC000550217006   -0.5100
     24 C24       -15.1865   -3.8571   57.6395 C.3     1  ZINC000550217006    0.0900
     25 N25       -16.3249   -3.1715   57.0277 N.am    1  ZINC000550217006   -0.7100
     26 C26       -16.1870   -2.4472   55.9186 C.2     1  ZINC000550217006    0.5600
     27 O27       -17.1814   -1.9187   55.4607 O.2     1  ZINC000550217006   -0.5200
     28 H28       -10.4523    5.9019   50.5941 H       1  ZINC000550217006    0.0700
     29 H29       -10.1258    6.2933   48.8886 H       1  ZINC000550217006    0.0800
     30 H30       -10.9982    4.7995   49.3076 H       1  ZINC000550217006    0.0700
     31 H31        -8.6380    4.3167   48.7198 H       1  ZINC000550217006    0.0600
     32 H32        -8.0921    5.4193   50.0062 H       1  ZINC000550217006    0.0600
     33 H33        -6.6885    3.9861   49.4415 H       1  ZINC000550217006    0.1300
     34 H34        -4.6962    2.5844   49.7961 H       1  ZINC000550217006    0.1300
     35 H35        -4.7737    0.7139   51.3937 H       1  ZINC000550217006    0.1300
     36 H36        -6.8426    0.2405   52.6406 H       1  ZINC000550217006    0.1300
     37 H37        -9.1134    1.9681   53.5209 H       1  ZINC000550217006    0.0800
     38 H38       -10.0415    2.0191   52.0029 H       1  ZINC000550217006    0.0800
     39 H39        -9.4628   -0.3659   51.5853 H       1  ZINC000550217006    0.0700
     40 H40        -8.5747   -0.4101   53.1271 H       1  ZINC000550217006    0.0700
     41 H41       -11.0356    0.4300   53.9010 H       1  ZINC000550217006    0.4000
     42 H42       -13.3082    0.2971   53.6332 H       1  ZINC000550217006    0.1400
     43 H43       -15.3918   -0.1769   54.8277 H       1  ZINC000550217006    0.1500
     44 H44       -12.0505   -3.7534   54.2154 H       1  ZINC000550217006    0.1500
     45 H45       -13.8613   -5.2678   54.9146 H       1  ZINC000550217006    0.4200
     46 H46       -15.5067   -4.3482   58.5584 H       1  ZINC000550217006    0.1300
     47 H47       -14.4022   -3.1342   57.8637 H       1  ZINC000550217006    0.1000
     48 H48       -17.2001   -3.2464   57.4390 H       1  ZINC000550217006    0.4200
@<TRIPOS>BOND
     1     1     2    1
     2     1    28    1
     3     1    29    1
     4     1    30    1
     5     2     3    1
     6     2    31    1
     7     2    32    1
     8     3     4    1
     9     4     9   ar
    10     4     5   ar
    11     5     6   ar
    12     5    33    1
    13     6     7   ar
    14     6    34    1
    15     7     8   ar
    16     7    35    1
    17     8     9   ar
    18     8    36    1
    19     9    10    1
    20    10    11    1
    21    10    37    1
    22    10    38    1
    23    11    12    1
    24    11    39    1
    25    11    40    1
    26    12    13   am
    27    12    41    1
    28    13    14    2
    29    13    15    1
    30    15    20   ar
    31    15    16   ar
    32    16    17   ar
    33    16    42    1
    34    17    18   ar
    35    17    43    1
    36    18    26    1
    37    18    19   ar
    38    19    20   ar
    39    19    21    1
    40    20    44    1
    41    21    22   am
    42    21    45    1
    43    22    23    2
    44    22    24    1
    45    24    25    1
    46    24    46    1
    47    24    47    1
    48    25    26   am
    49    25    48    1
    50    26    27    2
@<TRIPOS>SUBSTRUCTURE
     1 ZINC000550217006        1 TEMP              0 ****  ****    0 ROOT


##########                                Name:    ZINC000195331548
##########                DOCK_Rotatable_Bonds:                   7
##########                         Heavy_Atoms:                  26
##########                    Molecular_Weight:             378.539
##########                DOCK_Rotatable_Bonds:                   7
##########                       Formal_Charge:          -0.0100004
##########                     HBond_Acceptors:                   7
##########                        HBond_Donors:                   2
##########                         Heavy_Atoms:                  26
##########                          Grid_Score:          -31.546394
##########                     Grid_vdw_energy:          -32.600815
##########                      Grid_es_energy:            1.054420
##########           Internal_energy_repulsive:           25.253815

@<TRIPOS>MOLECULE
ZINC000195331548
 56 58 1 0 0
SMALL
USER_CHARGES


@<TRIPOS>ATOM
      1 C1         -3.6188    3.2666   57.7749 C.3     1  ZINC000195331548   -0.0800
      2 C2         -3.4403    3.8303   56.3888 C.2     1  ZINC000195331548    0.0700
      3 C3         -3.1930    5.1237   56.1606 C.2     1  ZINC000195331548   -0.2600
      4 S4         -3.0493    5.3492   54.4190 S.3     1  ZINC000195331548    0.1100
      5 C5         -3.3443    3.6835   54.1704 C.2     1  ZINC000195331548    0.0600
      6 C6         -3.3918    3.0074   52.8244 C.3     1  ZINC000195331548   -0.0100
      7 H7         -3.0685    1.9713   52.9254 H       1  ZINC000195331548    0.1100
      8 C8         -2.4640    3.7400   51.8513 C.3     1  ZINC000195331548   -0.1200
      9 C9         -2.5637    3.0839   50.4714 C.3     1  ZINC000195331548   -0.1100
     10 C10        -4.0189    3.1199   49.9989 C.3     1  ZINC000195331548    0.0500
     11 N11        -4.8657    2.4055   50.9628 N.3     1  ZINC000195331548   -0.5200
     12 C12        -6.2468    2.3001   50.4733 C.3     1  ZINC000195331548    0.0400
     13 C13        -6.9602    1.2000   51.2159 C.2     1  ZINC000195331548    0.5100
     14 O14        -6.3341    0.2578   51.6520 O.2     1  ZINC000195331548   -0.4400
     15 N15        -8.2945    1.2634   51.3954 N.am    1  ZINC000195331548   -0.7000
     16 C16        -8.9329    0.2787   52.0582 C.2     1  ZINC000195331548    0.6900
     17 O17        -8.3056   -0.6673   52.4928 O.2     1  ZINC000195331548   -0.5300
     18 N18       -10.2669    0.3430   52.2391 N.am    1  ZINC000195331548   -0.7300
     19 C19       -10.9606   -0.7266   52.9611 C.3     1  ZINC000195331548    0.1700
     20 H20       -10.2344   -1.4630   53.3051 H       1  ZINC000195331548    0.0900
     21 C21       -11.9684   -1.4011   52.0284 C.3     1  ZINC000195331548   -0.1300
     22 C22       -12.9878   -0.3674   51.5456 C.3     1  ZINC000195331548   -0.1200
     23 C23       -13.7237    0.2241   52.7495 C.3     1  ZINC000195331548   -0.1200
     24 C24       -12.7158    0.8987   53.6823 C.3     1  ZINC000195331548   -0.1100
     25 C25       -11.6965   -0.1351   54.1651 C.3     1  ZINC000195331548   -0.1000
     26 H26       -12.2126   -0.9308   54.7022 H       1  ZINC000195331548    0.0900
     27 C27       -10.6885    0.5396   55.0977 C.3     1  ZINC000195331548   -0.1500
     28 C28        -4.8230    3.0456   52.2836 C.3     1  ZINC000195331548    0.0600
     29 N29        -3.5150    3.0882   55.3024 N.2     1  ZINC000195331548   -0.4700
     30 H30        -2.6521    2.9478   58.1648 H       1  ZINC000195331548    0.0800
     31 H31        -4.0390    4.0323   58.4272 H       1  ZINC000195331548    0.0800
     32 H32        -4.2944    2.4122   57.7355 H       1  ZINC000195331548    0.0800
     33 H33        -3.0948    5.8939   56.9112 H       1  ZINC000195331548    0.1800
     34 H34        -2.7633    4.7857   51.7800 H       1  ZINC000195331548    0.0600
     35 H35        -1.4370    3.6788   52.2114 H       1  ZINC000195331548    0.0700
     36 H36        -1.9378    3.6275   49.7639 H       1  ZINC000195331548    0.0800
     37 H37        -2.2273    2.0490   50.5353 H       1  ZINC000195331548    0.0800
     38 H38        -4.0958    2.6407   49.0229 H       1  ZINC000195331548    0.0800
     39 H39        -4.3502    4.1554   49.9220 H       1  ZINC000195331548    0.0400
     40 H40        -6.2380    2.0725   49.4073 H       1  ZINC000195331548    0.1200
     41 H41        -6.7641    3.2451   50.6389 H       1  ZINC000195331548    0.0700
     42 H42        -8.7953    2.0177   51.0475 H       1  ZINC000195331548    0.4100
     43 H43       -10.7678    1.0973   51.8912 H       1  ZINC000195331548    0.4000
     44 H44       -12.4845   -2.1969   52.5656 H       1  ZINC000195331548    0.0700
     45 H45       -11.4442   -1.8226   51.1707 H       1  ZINC000195331548    0.0700
     46 H46       -13.7059   -0.8480   50.8811 H       1  ZINC000195331548    0.0600
     47 H47       -12.4717    0.4283   51.0084 H       1  ZINC000195331548    0.0600
     48 H48       -14.4499    0.9606   52.4055 H       1  ZINC000195331548    0.0600
     49 H49       -14.2397   -0.5716   53.2867 H       1  ZINC000195331548    0.0600
     50 H50       -12.1997    1.6944   53.1450 H       1  ZINC000195331548    0.0600
     51 H51       -13.2400    1.3201   54.5400 H       1  ZINC000195331548    0.0700
     52 H52       -10.1724    1.3353   54.5606 H       1  ZINC000195331548    0.0500
     53 H53       -11.2129    0.9609   55.9555 H       1  ZINC000195331548    0.0600
     54 H54        -9.9623   -0.1969   55.4417 H       1  ZINC000195331548    0.0600
     55 H55        -5.1505    4.0815   52.1960 H       1  ZINC000195331548    0.0400
     56 H56        -5.4838    2.5124   52.9671 H       1  ZINC000195331548    0.0900
@<TRIPOS>BOND
     1     1     2    1
     2     1    30    1
     3     1    31    1
     4     1    32    1
     5     2    29    1
     6     2     3    2
     7     3     4    1
     8     3    33    1
     9     4     5    1
    10     5     6    1
    11     5    29    2
    12     6     7    1
    13     6    28    1
    14     6     8    1
    15     8     9    1
    16     8    34    1
    17     8    35    1
    18     9    10    1
    19     9    36    1
    20     9    37    1
    21    10    11    1
    22    10    38    1
    23    10    39    1
    24    11    12    1
    25    11    28    1
    26    12    13    1
    27    12    40    1
    28    12    41    1
    29    13    14    2
    30    13    15   am
    31    15    16   am
    32    15    42    1
    33    16    17    2
    34    16    18   am
    35    18    19    1
    36    18    43    1
    37    19    20    1
    38    19    25    1
    39    19    21    1
    40    21    22    1
    41    21    44    1
    42    21    45    1
    43    22    23    1
    44    22    46    1
    45    22    47    1
    46    23    24    1
    47    23    48    1
    48    23    49    1
    49    24    25    1
    50    24    50    1
    51    24    51    1
    52    25    26    1
    53    25    27    1
    54    27    52    1
    55    27    53    1
    56    27    54    1
    57    28    55    1
    58    28    56    1
@<TRIPOS>SUBSTRUCTURE
     1 ZINC000195331548        1 TEMP              0 ****  ****    0 ROOT


##########                                Name:    ZINC000821177065
##########                DOCK_Rotatable_Bonds:                  10
##########                         Heavy_Atoms:                  25
##########                    Molecular_Weight:             341.413
##########                DOCK_Rotatable_Bonds:                  10
##########                       Formal_Charge:          0.00999917
##########                     HBond_Acceptors:                   7
##########                        HBond_Donors:                   3
##########                         Heavy_Atoms:                  25
##########                          Grid_Score:          -31.524532
##########                     Grid_vdw_energy:          -29.047731
##########                      Grid_es_energy:           -2.476801
##########           Internal_energy_repulsive:           22.370930

@<TRIPOS>MOLECULE
ZINC000821177065
 48 51 1 0 0
SMALL
USER_CHARGES


@<TRIPOS>ATOM
      1 O1         -7.5812    4.1805   54.4580 O.2     1  ZINC000821177065   -0.5600
      2 C2         -6.5235    3.6251   54.6842 C.2     1  ZINC000821177065    0.7100
      3 N3         -5.5204    3.6946   53.7867 N.am    1  ZINC000821177065   -0.7300
      4 C4         -5.7065    4.4344   52.5360 C.3     1  ZINC000821177065    0.1200
      5 C5         -5.6578    3.4617   51.3559 C.3     1  ZINC000821177065    0.1900
      6 O6         -5.3435    4.1785   50.1604 O.3     1  ZINC000821177065   -0.5400
      7 C7         -4.5845    2.4020   51.6124 C.3     1  ZINC000821177065   -0.1500
      8 C8         -3.7827    1.9028   50.4088 C.3     1  ZINC000821177065   -0.1600
      9 C9         -3.1230    2.8208   51.4399 C.3     1  ZINC000821177065   -0.1700
     10 C10        -7.0192    2.7811   51.1996 C.3     1  ZINC000821177065   -0.1800
     11 C11        -7.0293    1.3071   50.7900 C.3     1  ZINC000821177065   -0.1900
     12 C12        -7.3929    1.7055   52.2217 C.3     1  ZINC000821177065   -0.1700
     13 N13        -6.3522    2.9445   55.8348 N.am    1  ZINC000821177065   -0.6500
     14 C14        -7.3956    2.8722   56.7684 C.2     1  ZINC000821177065    0.3200
     15 N15        -8.1964    1.8491   56.9517 N.2     1  ZINC000821177065   -0.3200
     16 N16        -9.0974    2.1769   57.9728 N.pl3   1  ZINC000821177065   -0.3600
     17 C17       -10.1618    1.3141   58.4911 C.3     1  ZINC000821177065    0.1900
     18 C18        -9.7179    0.6944   59.7910 C.ar    1  ZINC000821177065    0.1100
     19 C19        -9.8748    1.3963   60.9709 C.ar    1  ZINC000821177065   -0.1500
     20 C20        -9.4634    0.8169   62.1617 C.ar    1  ZINC000821177065   -0.0700
     21 C21        -8.9074   -0.4523   62.1205 C.ar    1  ZINC000821177065   -0.1700
     22 C22        -8.7824   -1.0936   60.9024 C.ar    1  ZINC000821177065    0.1000
     23 N23        -9.1892   -0.5139   59.7901 N.ar    1  ZINC000821177065   -0.4700
     24 C24        -8.8130    3.4265   58.3961 C.2     1  ZINC000821177065    0.0700
     25 C25        -7.7625    3.8797   57.6748 C.2     1  ZINC000821177065   -0.2600
     26 H26        -4.6752    3.2548   53.9689 H       1  ZINC000821177065    0.4000
     27 H27        -6.6732    4.9379   52.5521 H       1  ZINC000821177065    0.0700
     28 H28        -4.9131    5.1742   52.4299 H       1  ZINC000821177065    0.0800
     29 H29        -6.0806    4.6943   49.8057 H       1  ZINC000821177065    0.3800
     30 H30        -4.8124    1.6827   52.3991 H       1  ZINC000821177065    0.1100
     31 H31        -3.4831    0.8549   50.4032 H       1  ZINC000821177065    0.0900
     32 H32        -4.0199    2.3294   49.4342 H       1  ZINC000821177065    0.1100
     33 H33        -2.9262    3.8511   51.1437 H       1  ZINC000821177065    0.1000
     34 H34        -2.3894    2.3766   52.1128 H       1  ZINC000821177065    0.0900
     35 H35        -7.8207    3.4148   50.8200 H       1  ZINC000821177065    0.1100
     36 H36        -7.8375    0.9706   50.1405 H       1  ZINC000821177065    0.1000
     37 H37        -6.0660    0.8220   50.6318 H       1  ZINC000821177065    0.1100
     38 H38        -6.6689    1.4828   53.0054 H       1  ZINC000821177065    0.0900
     39 H39        -8.4403    1.6315   52.5141 H       1  ZINC000821177065    0.1000
     40 H40        -5.5070    2.5047   56.0170 H       1  ZINC000821177065    0.4100
     41 H41       -11.0607    1.9071   58.6595 H       1  ZINC000821177065    0.1000
     42 H42       -10.3760    0.5271   57.7679 H       1  ZINC000821177065    0.1200
     43 H43       -10.3119    2.3839   60.9656 H       1  ZINC000821177065    0.1400
     44 H44        -9.5733    1.3422   63.0991 H       1  ZINC000821177065    0.1400
     45 H45        -8.5758   -0.9339   63.0285 H       1  ZINC000821177065    0.1400
     46 H46        -8.3499   -2.0824   60.8616 H       1  ZINC000821177065    0.1600
     47 H47        -9.3294    3.9667   59.1756 H       1  ZINC000821177065    0.1800
     48 H48        -7.2939    4.8477   57.7735 H       1  ZINC000821177065    0.1700
@<TRIPOS>BOND
     1     1     2    2
     2     2     3   am
     3     2    13   am
     4     3     4    1
     5     3    26    1
     6     4     5    1
     7     4    27    1
     8     4    28    1
     9     5     6    1
    10     5     7    1
    11     5    10    1
    12     6    29    1
    13     7     9    1
    14     7     8    1
    15     7    30    1
    16     8     9    1
    17     8    31    1
    18     8    32    1
    19     9    33    1
    20     9    34    1
    21    10    12    1
    22    10    11    1
    23    10    35    1
    24    11    12    1
    25    11    36    1
    26    11    37    1
    27    12    38    1
    28    12    39    1
    29    13    14    1
    30    13    40    1
    31    14    25    1
    32    14    15    2
    33    15    16    1
    34    16    17    1
    35    16    24    1
    36    17    18    1
    37    17    41    1
    38    17    42    1
    39    18    23   ar
    40    18    19   ar
    41    19    20   ar
    42    19    43    1
    43    20    21   ar
    44    20    44    1
    45    21    22   ar
    46    21    45    1
    47    22    23   ar
    48    22    46    1
    49    24    25    2
    50    24    47    1
    51    25    48    1
@<TRIPOS>SUBSTRUCTURE
     1 ZINC000821177065        1 TEMP              0 ****  ****    0 ROOT


##########                                Name:    ZINC001191386213
##########                DOCK_Rotatable_Bonds:                   6
##########                         Heavy_Atoms:                  29
##########                    Molecular_Weight:             392.433
##########                DOCK_Rotatable_Bonds:                   6
##########                       Formal_Charge:               -0.02
##########                     HBond_Acceptors:                   7
##########                        HBond_Donors:                   2
##########                         Heavy_Atoms:                  29
##########                          Grid_Score:          -31.507284
##########                     Grid_vdw_energy:          -30.630913
##########                      Grid_es_energy:           -0.876371
##########           Internal_energy_repulsive:          189.253754

@<TRIPOS>MOLECULE
ZINC001191386213
 50 53 1 0 0
SMALL
USER_CHARGES


@<TRIPOS>ATOM
      1 C1         -9.8398    0.7182   61.4320 C.3     1  ZINC001191386213   -0.1700
      2 C2        -10.7686   -0.1310   60.6030 C.2     1  ZINC001191386213    0.5100
      3 O3        -10.5224   -0.3342   59.4330 O.2     1  ZINC001191386213   -0.5200
      4 N4        -11.8729   -0.6646   61.1618 N.am    1  ZINC001191386213   -0.6800
      5 C5        -12.7355   -1.4532   60.3920 C.ar    1  ZINC001191386213    0.1400
      6 C6        -13.8676   -2.0129   60.9707 C.ar    1  ZINC001191386213   -0.1400
      7 C7        -14.7219   -2.7918   60.2133 C.ar    1  ZINC001191386213   -0.1000
      8 C8        -14.4548   -3.0182   58.8779 C.ar    1  ZINC001191386213   -0.1100
      9 C9        -13.3210   -2.4609   58.2893 C.ar    1  ZINC001191386213    0.0100
     10 C10       -13.0325   -2.7034   56.8535 C.2     1  ZINC001191386213    0.0700
     11 N11       -13.5421   -3.6619   56.1089 N.2     1  ZINC001191386213   -0.2500
     12 N12       -13.0891   -3.5970   54.9091 N.pl3   1  ZINC001191386213   -0.3800
     13 C13       -12.2207   -2.5477   54.7965 C.2     1  ZINC001191386213   -0.0400
     14 C14       -11.4899   -2.1345   53.5874 C.2     1  ZINC001191386213    0.6100
     15 O15       -11.5603   -2.8052   52.5752 O.2     1  ZINC001191386213   -0.5100
     16 N16       -10.7428   -1.0129   53.6020 N.am    1  ZINC001191386213   -0.6200
     17 C17       -10.5703   -0.1131   54.7518 C.3     1  ZINC001191386213    0.0800
     18 C18        -9.6562    1.0436   54.2955 C.3     1  ZINC001191386213   -0.1200
     19 C19        -9.8234    1.0308   52.7530 C.3     1  ZINC001191386213   -0.0600
     20 H20       -10.7226    1.5687   52.4530 H       1  ZINC001191386213    0.1000
     21 C21        -8.6049    1.5996   52.0729 C.ar    1  ZINC001191386213   -0.1100
     22 C22        -7.3747    0.9921   52.2373 C.ar    1  ZINC001191386213   -0.0900
     23 C23        -6.2565    1.5139   51.6135 C.ar    1  ZINC001191386213   -0.1300
     24 C24        -6.3676    2.6438   50.8251 C.ar    1  ZINC001191386213   -0.0900
     25 C25        -7.5970    3.2534   50.6595 C.ar    1  ZINC001191386213   -0.1500
     26 C26        -8.7185    2.7281   51.2783 C.ar    1  ZINC001191386213    0.1100
     27 F27        -9.9207    3.3232   51.1173 F       1  ZINC001191386213   -0.1400
     28 C28        -9.9579   -0.4885   52.4695 C.3     1  ZINC001191386213    0.1200
     29 C29       -12.1694   -1.9470   56.0398 C.2     1  ZINC001191386213   -0.1300
     30 C30       -12.4634   -1.6713   59.0496 C.ar    1  ZINC001191386213   -0.1000
     31 H31        -9.0093    1.0585   60.8134 H       1  ZINC001191386213    0.1000
     32 H32       -10.3831    1.5810   61.8175 H       1  ZINC001191386213    0.0900
     33 H33        -9.4552    0.1294   62.2647 H       1  ZINC001191386213    0.0900
     34 H34       -12.0698   -0.5022   62.0977 H       1  ZINC001191386213    0.4100
     35 H35       -14.0805   -1.8393   62.0152 H       1  ZINC001191386213    0.1300
     36 H36       -15.6008   -3.2249   60.6675 H       1  ZINC001191386213    0.1300
     37 H37       -15.1243   -3.6276   58.2892 H       1  ZINC001191386213    0.1300
     38 H38       -13.3273   -4.2028   54.1899 H       1  ZINC001191386213    0.4400
     39 H39       -11.5381    0.2801   55.0633 H       1  ZINC001191386213    0.0700
     40 H40       -10.1035   -0.6511   55.5769 H       1  ZINC001191386213    0.0800
     41 H41        -9.9965    1.9915   54.7123 H       1  ZINC001191386213    0.0900
     42 H42        -8.6202    0.8487   54.5728 H       1  ZINC001191386213    0.0900
     43 H43        -7.2866    0.1096   52.8536 H       1  ZINC001191386213    0.1300
     44 H44        -5.2955    1.0384   51.7424 H       1  ZINC001191386213    0.1300
     45 H45        -5.4935    3.0507   50.3386 H       1  ZINC001191386213    0.1300
     46 H46        -7.6835    4.1367   50.0441 H       1  ZINC001191386213    0.1400
     47 H47        -8.9741   -0.9564   52.4340 H       1  ZINC001191386213    0.0800
     48 H48       -10.4917   -0.6539   51.5336 H       1  ZINC001191386213    0.0900
     49 H49       -11.5861   -1.0848   56.3274 H       1  ZINC001191386213    0.1700
     50 H50       -11.5836   -1.2374   58.5979 H       1  ZINC001191386213    0.1500
@<TRIPOS>BOND
     1     1     2    1
     2     1    31    1
     3     1    32    1
     4     1    33    1
     5     2     3    2
     6     2     4   am
     7     4     5    1
     8     4    34    1
     9     5    30   ar
    10     5     6   ar
    11     6     7   ar
    12     6    35    1
    13     7     8   ar
    14     7    36    1
    15     8     9   ar
    16     8    37    1
    17     9    10    1
    18     9    30   ar
    19    10    29    1
    20    10    11    2
    21    11    12    1
    22    12    13    1
    23    12    38    1
    24    13    14    1
    25    13    29    2
    26    14    15    2
    27    14    16   am
    28    16    28    1
    29    16    17    1
    30    17    18    1
    31    17    39    1
    32    17    40    1
    33    18    19    1
    34    18    41    1
    35    18    42    1
    36    19    20    1
    37    19    21    1
    38    19    28    1
    39    21    26   ar
    40    21    22   ar
    41    22    23   ar
    42    22    43    1
    43    23    24   ar
    44    23    44    1
    45    24    25   ar
    46    24    45    1
    47    25    26   ar
    48    25    46    1
    49    26    27    1
    50    28    47    1
    51    28    48    1
    52    29    49    1
    53    30    50    1
@<TRIPOS>SUBSTRUCTURE
     1 ZINC001191386213        1 TEMP              0 ****  ****    0 ROOT


##########                                Name:    ZINC000175255939
##########                DOCK_Rotatable_Bonds:                   8
##########                         Heavy_Atoms:                  28
##########                    Molecular_Weight:             394.375
##########                DOCK_Rotatable_Bonds:                   8
##########                       Formal_Charge:          -0.0399999
##########                     HBond_Acceptors:                   9
##########                        HBond_Donors:                   1
##########                         Heavy_Atoms:                  28
##########                          Grid_Score:          -31.506456
##########                     Grid_vdw_energy:          -30.663420
##########                      Grid_es_energy:           -0.843037
##########           Internal_energy_repulsive:           15.502496

@<TRIPOS>MOLECULE
ZINC000175255939
 48 50 1 0 0
SMALL
USER_CHARGES


@<TRIPOS>ATOM
      1 C1         -0.9841    3.4709   51.6833 C.3     1  ZINC000175255939    0.0300
      2 O2         -1.2192    2.5088   50.6215 O.3     1  ZINC000175255939   -0.3600
      3 C3         -2.4849    2.1015   50.4374 C.2     1  ZINC000175255939    0.4600
      4 O4         -2.7362    1.2715   49.5961 O.2     1  ZINC000175255939   -0.5000
      5 C5         -3.5925    2.6795   51.2800 C.3     1  ZINC000175255939   -0.0800
      6 H6         -3.1939    2.9760   52.2503 H       1  ZINC000175255939    0.1100
      7 C7         -4.1837    3.9027   50.5762 C.3     1  ZINC000175255939   -0.1200
      8 C8         -5.3082    4.4894   51.4318 C.3     1  ZINC000175255939   -0.1100
      9 C9         -6.4010    3.4370   51.6293 C.3     1  ZINC000175255939   -0.1200
     10 C10        -5.8098    2.2139   52.3332 C.3     1  ZINC000175255939   -0.1000
     11 H11        -5.4113    2.5104   53.3034 H       1  ZINC000175255939    0.1100
     12 C12        -6.8863    1.1772   52.5278 C.2     1  ZINC000175255939    0.5100
     13 O13        -6.6862    0.0266   52.2010 O.2     1  ZINC000175255939   -0.4800
     14 N14        -8.0712    1.5290   53.0649 N.am    1  ZINC000175255939   -0.6300
     15 C15        -9.0630    0.5747   53.2425 C.2     1  ZINC000175255939    0.2100
     16 C16        -9.8605    0.4211   54.3371 C.2     1  ZINC000175255939   -0.2600
     17 C17       -10.6864   -0.6837   54.0040 C.2     1  ZINC000175255939    0.0900
     18 C18       -11.7494   -1.2866   54.8456 C.ar    1  ZINC000175255939   -0.0500
     19 C19       -12.8081   -1.9699   54.2499 C.ar    1  ZINC000175255939   -0.0600
     20 C20       -13.7945   -2.5292   55.0343 C.ar    1  ZINC000175255939   -0.1300
     21 C21       -13.7341   -2.4117   56.4166 C.ar    1  ZINC000175255939    0.1200
     22 O22       -14.7073   -2.9637   57.1870 O.3     1  ZINC000175255939   -0.3200
     23 C23       -14.9248   -4.3693   57.0491 C.3     1  ZINC000175255939    0.4100
     24 F24       -13.7211   -5.0503   57.2609 F       1  ZINC000175255939   -0.2000
     25 F25       -15.8702   -4.7895   57.9908 F       1  ZINC000175255939   -0.2000
     26 C26       -12.6806   -1.7316   57.0128 C.ar    1  ZINC000175255939   -0.1900
     27 C27       -11.6881   -1.1757   56.2336 C.ar    1  ZINC000175255939   -0.0500
     28 N28       -10.3220   -1.0654   52.8031 N.2     1  ZINC000175255939   -0.3600
     29 O29        -9.4299   -0.3754   52.3677 O.3     1  ZINC000175255939    0.1200
     30 C30        -4.6854    1.6271   51.4776 C.3     1  ZINC000175255939   -0.0900
     31 H31         0.0775    3.7146   51.7243 H       1  ZINC000175255939    0.1000
     32 H32        -1.5575    4.3768   51.4863 H       1  ZINC000175255939    0.0600
     33 H33        -1.2959    3.0436   52.6364 H       1  ZINC000175255939    0.0600
     34 H34        -3.4051    4.6524   50.4355 H       1  ZINC000175255939    0.0800
     35 H35        -4.5822    3.6061   49.6060 H       1  ZINC000175255939    0.0700
     36 H36        -4.9096    4.7860   52.4020 H       1  ZINC000175255939    0.0700
     37 H37        -5.7293    5.3608   50.9303 H       1  ZINC000175255939    0.0800
     38 H38        -7.2021    3.8550   52.2388 H       1  ZINC000175255939    0.0700
     39 H39        -6.7996    3.1406   50.6591 H       1  ZINC000175255939    0.0800
     40 H40        -8.2308    2.4490   53.3274 H       1  ZINC000175255939    0.4300
     41 H41        -9.8630    1.0043   55.2461 H       1  ZINC000175255939    0.1800
     42 H42       -12.8560   -2.0609   53.1747 H       1  ZINC000175255939    0.1400
     43 H43       -14.6151   -3.0587   54.5732 H       1  ZINC000175255939    0.1400
     44 H44       -15.2917   -4.5835   56.0453 H       1  ZINC000175255939    0.1900
     45 H45       -12.6362   -1.6418   58.0881 H       1  ZINC000175255939    0.1400
     46 H46       -10.8688   -0.6471   56.6979 H       1  ZINC000175255939    0.1400
     47 H47        -5.0839    1.3306   50.5074 H       1  ZINC000175255939    0.0900
     48 H48        -4.2642    0.7557   51.9790 H       1  ZINC000175255939    0.0800
@<TRIPOS>BOND
     1     1     2    1
     2     1    31    1
     3     1    32    1
     4     1    33    1
     5     2     3    1
     6     3     4    2
     7     3     5    1
     8     5     6    1
     9     5    30    1
    10     5     7    1
    11     7     8    1
    12     7    34    1
    13     7    35    1
    14     8     9    1
    15     8    36    1
    16     8    37    1
    17     9    10    1
    18     9    38    1
    19     9    39    1
    20    10    11    1
    21    10    12    1
    22    10    30    1
    23    12    13    2
    24    12    14   am
    25    14    15    1
    26    14    40    1
    27    15    29    1
    28    15    16    2
    29    16    17    1
    30    16    41    1
    31    17    18    1
    32    17    28    2
    33    18    27   ar
    34    18    19   ar
    35    19    20   ar
    36    19    42    1
    37    20    21   ar
    38    20    43    1
    39    21    22    1
    40    21    26   ar
    41    22    23    1
    42    23    24    1
    43    23    25    1
    44    23    44    1
    45    26    27   ar
    46    26    45    1
    47    27    46    1
    48    28    29    1
    49    30    47    1
    50    30    48    1
@<TRIPOS>SUBSTRUCTURE
     1 ZINC000175255939        1 TEMP              0 ****  ****    0 ROOT


##########                                Name:    ZINC000265724350
##########                DOCK_Rotatable_Bonds:                   8
##########                         Heavy_Atoms:                  23
##########                    Molecular_Weight:              345.42
##########                DOCK_Rotatable_Bonds:                   8
##########                       Formal_Charge:          -0.0300002
##########                     HBond_Acceptors:                   9
##########                        HBond_Donors:                   2
##########                         Heavy_Atoms:                  23
##########                          Grid_Score:          -31.505466
##########                     Grid_vdw_energy:          -31.766842
##########                      Grid_es_energy:            0.261375
##########           Internal_energy_repulsive:            4.657375

@<TRIPOS>MOLECULE
ZINC000265724350
 46 47 1 0 0
SMALL
USER_CHARGES


@<TRIPOS>ATOM
      1 C1         -1.9552    2.4694   51.2595 C.3     1  ZINC000265724350    0.0800
      2 N2         -3.3974    2.2281   51.3507 N.am    1  ZINC000265724350   -1.1100
      3 S3         -4.4339    3.0061   50.3200 S.o2    1  ZINC000265724350    2.7200
      4 O4         -4.3688    4.3863   50.6517 O.2     1  ZINC000265724350   -0.9300
      5 O5         -4.1574    2.5055   49.0192 O.2     1  ZINC000265724350   -0.9300
      6 C6         -6.0652    2.4744   50.7213 C.2     1  ZINC000265724350   -0.5600
      7 C7         -7.1909    3.2070   50.5714 C.2     1  ZINC000265724350   -0.0900
      8 C8         -8.2623    2.4118   51.0074 C.2     1  ZINC000265724350   -0.1400
      9 C9         -7.7294    1.2195   51.4062 C.2     1  ZINC000265724350   -0.0200
     10 C10        -8.4778    0.0762   51.9387 C.2     1  ZINC000265724350    0.6000
     11 O11        -7.8828   -0.9051   52.3440 O.2     1  ZINC000265724350   -0.5000
     12 N12        -9.8244    0.1121   51.9793 N.am    1  ZINC000265724350   -0.7100
     13 C13       -10.5719   -1.0293   52.5129 C.3     1  ZINC000265724350    0.1200
     14 C14       -11.8727   -0.5348   53.1486 C.3     1  ZINC000265724350   -0.1100
     15 H15       -11.6505    0.2627   53.8576 H       1  ZINC000265724350    0.0800
     16 C16       -12.8034   -0.0022   52.0573 C.3     1  ZINC000265724350   -0.1400
     17 C17       -12.5549   -1.6924   53.8804 C.3     1  ZINC000265724350    0.0600
     18 N18       -12.0777   -1.7431   55.2688 N.3     1  ZINC000265724350   -0.5300
     19 C19       -11.7769   -3.1243   55.6725 C.3     1  ZINC000265724350    0.0100
     20 C20       -11.2276   -3.1245   57.1015 C.3     1  ZINC000265724350    0.0600
     21 O21       -12.1759   -2.5005   57.9714 O.3     1  ZINC000265724350   -0.3900
     22 C22       -12.4916   -1.1539   57.6079 C.3     1  ZINC000265724350    0.0600
     23 C23       -13.0536   -1.1337   56.1840 C.3     1  ZINC000265724350    0.0200
     24 O24        -6.3944    1.2756   51.2195 O.3     1  ZINC000265724350   -0.1100
     25 H25        -1.4388    1.8740   52.0124 H       1  ZINC000265724350    0.0900
     26 H26        -1.6017    2.1871   50.2678 H       1  ZINC000265724350    0.0600
     27 H27        -1.7523    3.5267   51.4303 H       1  ZINC000265724350    0.0700
     28 H28        -3.7451    1.6126   52.0150 H       1  ZINC000265724350    0.4200
     29 H29        -7.2542    4.2147   50.1883 H       1  ZINC000265724350    0.1800
     30 H30        -9.3058    2.6893   51.0243 H       1  ZINC000265724350    0.1700
     31 H31       -10.2987    0.8937   51.6552 H       1  ZINC000265724350    0.4100
     32 H32       -10.8033   -1.7223   51.7040 H       1  ZINC000265724350    0.0800
     33 H33        -9.9699   -1.5379   53.2659 H       1  ZINC000265724350    0.0700
     34 H34       -12.3174    0.8225   51.5359 H       1  ZINC000265724350    0.0500
     35 H35       -13.0258   -0.7997   51.3483 H       1  ZINC000265724350    0.0600
     36 H36       -13.7302    0.3501   52.5102 H       1  ZINC000265724350    0.0700
     37 H37       -13.6343   -1.5415   53.8726 H       1  ZINC000265724350    0.0800
     38 H38       -12.3155   -2.6304   53.3794 H       1  ZINC000265724350    0.0400
     39 H39       -12.6876   -3.7217   55.6325 H       1  ZINC000265724350    0.0400
     40 H40       -11.0334   -3.5473   54.9968 H       1  ZINC000265724350    0.0900
     41 H41       -11.0568   -4.1511   57.4256 H       1  ZINC000265724350    0.1000
     42 H42       -10.2885   -2.5720   57.1306 H       1  ZINC000265724350    0.0600
     43 H43       -13.2349   -0.7552   58.2983 H       1  ZINC000265724350    0.1000
     44 H44       -11.5892   -0.5440   57.6518 H       1  ZINC000265724350    0.0600
     45 H45       -13.2422   -0.1036   55.8817 H       1  ZINC000265724350    0.0900
     46 H46       -13.9849   -1.6993   56.1522 H       1  ZINC000265724350    0.0400
@<TRIPOS>BOND
     1     1     2    1
     2     1    25    1
     3     1    26    1
     4     1    27    1
     5     2     3   am
     6     2    28    1
     7     3     4    2
     8     3     5    2
     9     3     6    1
    10     6    24    1
    11     6     7    2
    12     7     8    1
    13     7    29    1
    14     8     9    2
    15     8    30    1
    16     9    10    1
    17     9    24    1
    18    10    11    2
    19    10    12   am
    20    12    13    1
    21    12    31    1
    22    13    14    1
    23    13    32    1
    24    13    33    1
    25    14    15    1
    26    14    16    1
    27    14    17    1
    28    16    34    1
    29    16    35    1
    30    16    36    1
    31    17    18    1
    32    17    37    1
    33    17    38    1
    34    18    23    1
    35    18    19    1
    36    19    20    1
    37    19    39    1
    38    19    40    1
    39    20    21    1
    40    20    41    1
    41    20    42    1
    42    21    22    1
    43    22    23    1
    44    22    43    1
    45    22    44    1
    46    23    45    1
    47    23    46    1
@<TRIPOS>SUBSTRUCTURE
     1 ZINC000265724350        1 TEMP              0 ****  ****    0 ROOT


##########                                Name:    ZINC000970996691
##########                DOCK_Rotatable_Bonds:                   7
##########                         Heavy_Atoms:                  24
##########                    Molecular_Weight:             334.462
##########                DOCK_Rotatable_Bonds:                   7
##########                       Formal_Charge:          -0.0199999
##########                     HBond_Acceptors:                   6
##########                        HBond_Donors:                   0
##########                         Heavy_Atoms:                  24
##########                          Grid_Score:          -31.483952
##########                     Grid_vdw_energy:          -31.905315
##########                      Grid_es_energy:            0.421364
##########           Internal_energy_repulsive:           16.202848

@<TRIPOS>MOLECULE
ZINC000970996691
 54 56 1 0 0
SMALL
USER_CHARGES


@<TRIPOS>ATOM
      1 C1         -2.1894    3.9283   51.8122 C.3     1  ZINC000970996691   -0.1500
      2 C2         -2.1405    2.5880   51.0763 C.3     1  ZINC000970996691   -0.1200
      3 C3         -3.0093    2.6643   49.8192 C.3     1  ZINC000970996691   -0.0300
      4 C4         -4.4611    2.7412   50.2159 C.2     1  ZINC000970996691    0.1800
      5 N5         -4.9894    2.3044   51.3338 N.2     1  ZINC000970996691   -0.4700
      6 C6         -6.3018    2.5860   51.2483 C.2     1  ZINC000970996691    0.1800
      7 C7         -7.3489    2.2819   52.2885 C.3     1  ZINC000970996691    0.1500
      8 N8         -8.1526    1.1322   51.8526 N.3     1  ZINC000970996691   -0.5200
      9 C9         -7.3241    0.1506   51.1398 C.3     1  ZINC000970996691    0.0200
     10 C10        -8.8431    0.5107   52.9907 C.3     1  ZINC000970996691    0.0700
     11 H11        -8.1269    0.1233   53.7152 H       1  ZINC000970996691    0.0600
     12 C12        -9.8246    1.5096   53.6585 C.3     1  ZINC000970996691   -0.1300
     13 C13       -10.8824    0.5827   54.2936 C.3     1  ZINC000970996691    0.1000
     14 N14       -10.8274   -0.6988   53.5751 N.am    1  ZINC000970996691   -0.6200
     15 C15       -11.5837   -1.7821   53.8420 C.2     1  ZINC000970996691    0.5300
     16 O16       -11.4530   -2.7907   53.1812 O.2     1  ZINC000970996691   -0.5300
     17 C17       -12.5917   -1.7400   54.9614 C.3     1  ZINC000970996691   -0.1000
     18 C18       -13.9513   -1.3091   54.4075 C.3     1  ZINC000970996691   -0.1100
     19 C19       -14.9747   -1.2664   55.5441 C.3     1  ZINC000970996691   -0.1200
     20 C20       -15.0972   -2.6560   56.1724 C.3     1  ZINC000970996691   -0.1200
     21 C21       -13.7377   -3.0870   56.7264 C.3     1  ZINC000970996691   -0.1200
     22 C22       -12.7143   -3.1297   55.5898 C.3     1  ZINC000970996691   -0.1000
     23 C23        -9.8082   -0.6031   52.5136 C.3     1  ZINC000970996691    0.1200
     24 N24        -6.5010    3.1689   50.1041 N.2     1  ZINC000970996691   -0.3800
     25 O25        -5.4553    3.2729   49.4983 O.3     1  ZINC000970996691    0.0800
     26 H26        -1.8142    4.7157   51.1586 H       1  ZINC000970996691    0.0600
     27 H27        -3.2186    4.1503   52.0948 H       1  ZINC000970996691    0.0600
     28 H28        -1.5705    3.8740   52.7078 H       1  ZINC000970996691    0.0600
     29 H29        -1.1113    2.3659   50.7938 H       1  ZINC000970996691    0.0700
     30 H30        -2.5157    1.8005   51.7300 H       1  ZINC000970996691    0.0700
     31 H31        -2.7418    3.5521   49.2461 H       1  ZINC000970996691    0.1100
     32 H32        -2.8457    1.7755   49.2099 H       1  ZINC000970996691    0.1000
     33 H33        -6.8629    2.0474   53.2355 H       1  ZINC000970996691    0.0700
     34 H34        -7.9959    3.1497   52.4172 H       1  ZINC000970996691    0.1100
     35 H35        -6.5338   -0.2058   51.8005 H       1  ZINC000970996691    0.0300
     36 H36        -7.9439   -0.6901   50.8283 H       1  ZINC000970996691    0.0800
     37 H37        -6.8798    0.6195   50.2618 H       1  ZINC000970996691    0.0700
     38 H38        -9.3165    2.0962   54.4239 H       1  ZINC000970996691    0.0800
     39 H39       -10.2803    2.1602   52.9118 H       1  ZINC000970996691    0.0900
     40 H40       -10.6536    0.4268   55.3478 H       1  ZINC000970996691    0.0700
     41 H41       -11.8734    1.0243   54.1885 H       1  ZINC000970996691    0.0700
     42 H42       -12.2649   -1.0267   55.7179 H       1  ZINC000970996691    0.0900
     43 H43       -13.8639   -0.3191   53.9599 H       1  ZINC000970996691    0.0700
     44 H44       -14.2781   -2.0224   53.6510 H       1  ZINC000970996691    0.0700
     45 H45       -14.6479   -0.5531   56.3006 H       1  ZINC000970996691    0.0600
     46 H46       -15.9432   -0.9593   55.1495 H       1  ZINC000970996691    0.0700
     47 H47       -15.8263   -2.6256   56.9822 H       1  ZINC000970996691    0.0600
     48 H48       -15.4240   -3.3693   55.4158 H       1  ZINC000970996691    0.0600
     49 H49       -13.4109   -2.3736   57.4829 H       1  ZINC000970996691    0.0600
     50 H50       -13.8250   -4.0769   57.1741 H       1  ZINC000970996691    0.0700
     51 H51       -13.0410   -3.8430   54.8332 H       1  ZINC000970996691    0.0800
     52 H52       -11.7456   -3.4367   55.9844 H       1  ZINC000970996691    0.0600
     53 H53       -10.2712   -0.3234   51.5673 H       1  ZINC000970996691    0.0800
     54 H54        -9.2765   -1.5492   52.4118 H       1  ZINC000970996691    0.0800
@<TRIPOS>BOND
     1     1     2    1
     2     1    26    1
     3     1    27    1
     4     1    28    1
     5     2     3    1
     6     2    29    1
     7     2    30    1
     8     3     4    1
     9     3    31    1
    10     3    32    1
    11     4    25    1
    12     4     5    2
    13     5     6    1
    14     6     7    1
    15     6    24    2
    16     7     8    1
    17     7    33    1
    18     7    34    1
    19     8     9    1
    20     8    10    1
    21     9    35    1
    22     9    36    1
    23     9    37    1
    24    10    11    1
    25    10    23    1
    26    10    12    1
    27    12    13    1
    28    12    38    1
    29    12    39    1
    30    13    14    1
    31    13    40    1
    32    13    41    1
    33    14    15   am
    34    14    23    1
    35    15    16    2
    36    15    17    1
    37    17    22    1
    38    17    18    1
    39    17    42    1
    40    18    19    1
    41    18    43    1
    42    18    44    1
    43    19    20    1
    44    19    45    1
    45    19    46    1
    46    20    21    1
    47    20    47    1
    48    20    48    1
    49    21    22    1
    50    21    49    1
    51    21    50    1
    52    22    51    1
    53    22    52    1
    54    23    53    1
    55    23    54    1
    56    24    25    1
@<TRIPOS>SUBSTRUCTURE
     1 ZINC000970996691        1 TEMP              0 ****  ****    0 ROOT


##########                                Name:    ZINC000174621331
##########                DOCK_Rotatable_Bonds:                   8
##########                         Heavy_Atoms:                  25
##########                    Molecular_Weight:             366.438
##########                DOCK_Rotatable_Bonds:                   8
##########                       Formal_Charge:        -5.96046e-08
##########                     HBond_Acceptors:                   8
##########                        HBond_Donors:                   3
##########                         Heavy_Atoms:                  25
##########                          Grid_Score:          -31.473864
##########                     Grid_vdw_energy:          -31.443047
##########                      Grid_es_energy:           -0.030817
##########           Internal_energy_repulsive:           12.383751

@<TRIPOS>MOLECULE
ZINC000174621331
 47 48 1 0 0
SMALL
USER_CHARGES


@<TRIPOS>ATOM
      1 C1        -11.6308   -3.2196   53.1617 C.3     1  ZINC000174621331    0.0300
      2 O2        -10.9059   -2.0225   53.4510 O.3     1  ZINC000174621331   -0.3800
      3 C3        -11.3666   -0.8761   52.7329 C.3     1  ZINC000174621331    0.0500
      4 C4        -10.6377    0.3699   53.2397 C.3     1  ZINC000174621331    0.2400
      5 H5        -11.2685    1.2461   53.0898 H       1  ZINC000174621331    0.1300
      6 N6        -10.3446    0.2176   54.6670 N.am    1  ZINC000174621331   -0.7200
      7 C7        -11.0967    0.8611   55.5817 C.2     1  ZINC000174621331    0.5600
      8 O8        -12.0172    1.5689   55.2224 O.2     1  ZINC000174621331   -0.5300
      9 C9        -10.8022    0.7060   57.0222 C.ar    1  ZINC000174621331   -0.1600
     10 C10       -10.7385    1.8282   57.8493 C.ar    1  ZINC000174621331   -0.0200
     11 C11       -10.4635    1.6765   59.1929 C.ar    1  ZINC000174621331   -0.1100
     12 C12       -10.3944    2.8871   60.0876 C.3     1  ZINC000174621331   -0.1200
     13 C13       -10.2517    0.4153   59.7206 C.ar    1  ZINC000174621331    0.0400
     14 C14        -9.9525    0.2571   61.1891 C.3     1  ZINC000174621331   -0.1600
     15 C15       -10.3139   -0.7016   58.9060 C.ar    1  ZINC000174621331   -0.6800
     16 S16       -10.0431   -2.3034   59.5884 S.o2    1  ZINC000174621331    2.7000
     17 N17       -10.4133   -3.4071   58.4106 N.am    1  ZINC000174621331   -1.2500
     18 O18        -8.6446   -2.4119   59.8148 O.2     1  ZINC000174621331   -0.9500
     19 O19       -11.0118   -2.4714   60.6144 O.2     1  ZINC000174621331   -0.9600
     20 C20       -10.5922   -0.5642   57.5620 C.ar    1  ZINC000174621331    0.0400
     21 C21        -9.3488    0.5426   52.4780 C.2     1  ZINC000174621331   -0.0200
     22 C22        -8.4350   -0.4179   52.2502 C.2     1  ZINC000174621331   -0.1900
     23 C23        -7.3928    0.1773   51.5028 C.2     1  ZINC000174621331   -0.2100
     24 C24        -7.7322    1.4658   51.3185 C.2     1  ZINC000174621331    0.0000
     25 C25        -6.9201    2.4930   50.5726 C.3     1  ZINC000174621331   -0.0800
     26 O26        -8.9207    1.6799   51.9062 O.3     1  ZINC000174621331   -0.1600
     27 H27       -12.6808   -3.0796   53.4187 H       1  ZINC000174621331    0.0400
     28 H28       -11.5442   -3.4491   52.0996 H       1  ZINC000174621331    0.0400
     29 H29       -11.2203   -4.0431   53.7460 H       1  ZINC000174621331    0.0900
     30 H30       -11.1648   -1.0080   51.6699 H       1  ZINC000174621331    0.0700
     31 H31       -12.4391   -0.7576   52.8872 H       1  ZINC000174621331    0.0700
     32 H32        -9.6093   -0.3463   54.9537 H       1  ZINC000174621331    0.4100
     33 H33       -10.9036    2.8133   57.4386 H       1  ZINC000174621331    0.1400
     34 H34       -11.3828    3.0918   60.4991 H       1  ZINC000174621331    0.0800
     35 H35        -9.6941    2.6981   60.9013 H       1  ZINC000174621331    0.0800
     36 H36       -10.0562    3.7472   59.5096 H       1  ZINC000174621331    0.0700
     37 H37       -10.8855    0.1320   61.7386 H       1  ZINC000174621331    0.1100
     38 H38        -9.3220   -0.6194   61.3390 H       1  ZINC000174621331    0.0700
     39 H39        -9.4334    1.1443   61.5517 H       1  ZINC000174621331    0.0900
     40 H40       -10.3272   -4.3562   58.5910 H       1  ZINC000174621331    0.4200
     41 H41       -10.7161   -3.1043   57.5402 H       1  ZINC000174621331    0.4200
     42 H42       -10.6408   -1.4368   56.9274 H       1  ZINC000174621331    0.1600
     43 H43        -8.4871   -1.4461   52.5763 H       1  ZINC000174621331    0.1500
     44 H44        -6.4962   -0.3092   51.1483 H       1  ZINC000174621331    0.1500
     45 H45        -7.2065    2.4889   49.5210 H       1  ZINC000174621331    0.0800
     46 H46        -7.1057    3.4801   50.9959 H       1  ZINC000174621331    0.0800
     47 H47        -5.8605    2.2530   50.6615 H       1  ZINC000174621331    0.0900
@<TRIPOS>BOND
     1     1     2    1
     2     1    27    1
     3     1    28    1
     4     1    29    1
     5     2     3    1
     6     3     4    1
     7     3    30    1
     8     3    31    1
     9     4     5    1
    10     4     6    1
    11     4    21    1
    12     6     7   am
    13     6    32    1
    14     7     8    2
    15     7     9    1
    16     9    20   ar
    17     9    10   ar
    18    10    11   ar
    19    10    33    1
    20    11    12    1
    21    11    13   ar
    22    12    34    1
    23    12    35    1
    24    12    36    1
    25    13    14    1
    26    13    15   ar
    27    14    37    1
    28    14    38    1
    29    14    39    1
    30    15    16    1
    31    15    20   ar
    32    16    17   am
    33    16    18    2
    34    16    19    2
    35    17    40    1
    36    17    41    1
    37    20    42    1
    38    21    26    1
    39    21    22    2
    40    22    23    1
    41    22    43    1
    42    23    24    2
    43    23    44    1
    44    24    25    1
    45    24    26    1
    46    25    45    1
    47    25    46    1
    48    25    47    1
@<TRIPOS>SUBSTRUCTURE
     1 ZINC000174621331        1 TEMP              0 ****  ****    0 ROOT


##########                                Name:    ZINC001310073555
##########                DOCK_Rotatable_Bonds:                  12
##########                         Heavy_Atoms:                  27
##########                    Molecular_Weight:             380.484
##########                DOCK_Rotatable_Bonds:                  12
##########                       Formal_Charge:          0.00999888
##########                     HBond_Acceptors:                   7
##########                        HBond_Donors:                   2
##########                         Heavy_Atoms:                  27
##########                          Grid_Score:          -31.465849
##########                     Grid_vdw_energy:          -30.413080
##########                      Grid_es_energy:           -1.052768
##########           Internal_energy_repulsive:           49.958977

@<TRIPOS>MOLECULE
ZINC001310073555
 59 59 1 0 0
SMALL
USER_CHARGES


@<TRIPOS>ATOM
      1 C1        -14.0256   -4.7089   56.1177 C.3     1  ZINC001310073555   -0.1600
      2 C2        -14.8444   -3.5148   56.6123 C.3     1  ZINC001310073555   -0.1100
      3 C3        -13.9088   -2.3387   56.8994 C.3     1  ZINC001310073555   -0.0600
      4 C4        -14.7265   -1.0496   57.0014 C.3     1  ZINC001310073555   -0.1100
      5 C5        -15.6978   -1.1536   58.1789 C.3     1  ZINC001310073555   -0.1600
      6 C6        -13.1738   -2.5822   58.2190 C.3     1  ZINC001310073555    0.1600
      7 N7        -12.4793   -1.3576   58.6243 N.am    1  ZINC001310073555   -0.7400
      8 C8        -11.8034   -1.3206   59.7898 C.2     1  ZINC001310073555    0.7100
      9 O9        -11.7689   -2.3039   60.5042 O.2     1  ZINC001310073555   -0.5700
     10 N10       -11.1658   -0.1934   60.1634 N.am    1  ZINC001310073555   -0.6700
     11 C11       -10.4619   -0.1547   61.3773 C.ar    1  ZINC001310073555    0.1000
     12 C12        -9.2116   -0.7461   61.4733 C.ar    1  ZINC001310073555   -0.0400
     13 C13        -8.5183   -0.7081   62.6686 C.ar    1  ZINC001310073555   -0.2200
     14 C14        -9.0709   -0.0783   63.7737 C.ar    1  ZINC001310073555    0.1500
     15 O15        -8.3864   -0.0426   64.9480 O.3     1  ZINC001310073555   -0.3200
     16 C16        -8.0049    1.2446   65.4376 C.3     1  ZINC001310073555    0.0300
     17 C17       -10.3212    0.5156   63.6820 C.ar    1  ZINC001310073555   -0.2300
     18 C18       -11.0162    0.4829   62.4848 C.ar    1  ZINC001310073555    0.1400
     19 O19       -12.2420    1.0645   62.3929 O.3     1  ZINC001310073555   -0.3100
     20 C20       -12.2755    2.4725   62.1515 C.3     1  ZINC001310073555    0.0300
     21 C21       -12.9058   -2.2103   55.7820 C.2     1  ZINC001310073555    0.4800
     22 O22       -11.7573   -2.5407   55.9602 O.2     1  ZINC001310073555   -0.5000
     23 O23       -13.2882   -1.7291   54.5888 O.3     1  ZINC001310073555   -0.3400
     24 C24       -12.2369   -1.4002   53.6429 C.3     1  ZINC001310073555    0.1200
     25 C25       -12.8498   -0.7289   52.4122 C.3     1  ZINC001310073555   -0.1800
     26 C26       -11.2391   -0.4451   54.3012 C.3     1  ZINC001310073555   -0.1400
     27 C27       -11.5139   -2.6801   53.2188 C.3     1  ZINC001310073555   -0.1800
     28 H28       -14.6923   -5.5467   55.9130 H       1  ZINC001310073555    0.0600
     29 H29       -13.4970   -4.4340   55.2049 H       1  ZINC001310073555    0.0500
     30 H30       -13.3044   -4.9967   56.8825 H       1  ZINC001310073555    0.0600
     31 H31       -15.5657   -3.2269   55.8474 H       1  ZINC001310073555    0.0800
     32 H32       -15.3730   -3.7898   57.5250 H       1  ZINC001310073555    0.0800
     33 H33       -14.0554   -0.2050   57.1573 H       1  ZINC001310073555    0.0800
     34 H34       -15.2882   -0.9019   56.0790 H       1  ZINC001310073555    0.0800
     35 H35       -16.3689   -1.9982   58.0229 H       1  ZINC001310073555    0.0600
     36 H36       -15.1361   -1.3013   59.1013 H       1  ZINC001310073555    0.0500
     37 H37       -16.2804   -0.2352   58.2515 H       1  ZINC001310073555    0.0600
     38 H38       -13.8925   -2.8639   58.9886 H       1  ZINC001310073555    0.0800
     39 H39       -12.4483   -3.3850   58.0880 H       1  ZINC001310073555    0.0800
     40 H40       -12.5058   -0.5736   58.0539 H       1  ZINC001310073555    0.4000
     41 H41       -11.1934    0.5911   59.5936 H       1  ZINC001310073555    0.4100
     42 H42        -8.7793   -1.2371   60.6140 H       1  ZINC001310073555    0.1500
     43 H43        -7.5447   -1.1698   62.7421 H       1  ZINC001310073555    0.1300
     44 H44        -7.3603    1.7345   64.7078 H       1  ZINC001310073555    0.0600
     45 H45        -8.8963    1.8505   65.5996 H       1  ZINC001310073555    0.0600
     46 H46        -7.4671    1.1305   66.3787 H       1  ZINC001310073555    0.1000
     47 H47       -10.7509    1.0058   64.5431 H       1  ZINC001310073555    0.1400
     48 H48       -13.3113    2.8079   62.1007 H       1  ZINC001310073555    0.1000
     49 H49       -11.7647    2.9924   62.9621 H       1  ZINC001310073555    0.0600
     50 H50       -11.7760    2.6915   61.2078 H       1  ZINC001310073555    0.0600
     51 H51       -13.3648    0.1830   52.7144 H       1  ZINC001310073555    0.0600
     52 H52       -12.0604   -0.4820   51.7021 H       1  ZINC001310073555    0.0700
     53 H53       -13.5605   -1.4094   51.9433 H       1  ZINC001310073555    0.0800
     54 H54       -10.8026   -0.9234   55.1779 H       1  ZINC001310073555    0.0700
     55 H55       -10.4499   -0.1982   53.5911 H       1  ZINC001310073555    0.0800
     56 H56       -11.7542    0.4667   54.6033 H       1  ZINC001310073555    0.0700
     57 H57       -12.2247   -3.3606   52.7498 H       1  ZINC001310073555    0.0800
     58 H58       -10.7246   -2.4333   52.5087 H       1  ZINC001310073555    0.0700
     59 H59       -11.0772   -3.1584   54.0955 H       1  ZINC001310073555    0.0600
@<TRIPOS>BOND
     1     1     2    1
     2     1    28    1
     3     1    29    1
     4     1    30    1
     5     2     3    1
     6     2    31    1
     7     2    32    1
     8     3     4    1
     9     3     6    1
    10     3    21    1
    11     4     5    1
    12     4    33    1
    13     4    34    1
    14     5    35    1
    15     5    36    1
    16     5    37    1
    17     6     7    1
    18     6    38    1
    19     6    39    1
    20     7     8   am
    21     7    40    1
    22     8     9    2
    23     8    10   am
    24    10    11    1
    25    10    41    1
    26    11    18   ar
    27    11    12   ar
    28    12    13   ar
    29    12    42    1
    30    13    14   ar
    31    13    43    1
    32    14    15    1
    33    14    17   ar
    34    15    16    1
    35    16    44    1
    36    16    45    1
    37    16    46    1
    38    17    18   ar
    39    17    47    1
    40    18    19    1
    41    19    20    1
    42    20    48    1
    43    20    49    1
    44    20    50    1
    45    21    22    2
    46    21    23    1
    47    23    24    1
    48    24    25    1
    49    24    26    1
    50    24    27    1
    51    25    51    1
    52    25    52    1
    53    25    53    1
    54    26    54    1
    55    26    55    1
    56    26    56    1
    57    27    57    1
    58    27    58    1
    59    27    59    1
@<TRIPOS>SUBSTRUCTURE
     1 ZINC001310073555        1 TEMP              0 ****  ****    0 ROOT


##########                                Name:    ZINC001579482641
##########                DOCK_Rotatable_Bonds:                   5
##########                         Heavy_Atoms:                  26
##########                    Molecular_Weight:             355.359
##########                DOCK_Rotatable_Bonds:                   5
##########                       Formal_Charge:                0.05
##########                     HBond_Acceptors:                  11
##########                        HBond_Donors:                   1
##########                         Heavy_Atoms:                  26
##########                          Grid_Score:          -31.457745
##########                     Grid_vdw_energy:          -30.356684
##########                      Grid_es_energy:           -1.101061
##########           Internal_energy_repulsive:           10.861810

@<TRIPOS>MOLECULE
ZINC001579482641
 43 46 1 0 0
SMALL
USER_CHARGES


@<TRIPOS>ATOM
      1 C1        -14.0182   -0.4016   52.6597 C.3     1  ZINC001579482641    0.0300
      2 O2        -12.8005   -0.8254   51.9918 O.3     1  ZINC001579482641   -0.3300
      3 C3        -12.0165   -1.7027   52.6483 C.2     1  ZINC001579482641    0.5300
      4 O4        -11.2312   -2.3949   52.0318 O.2     1  ZINC001579482641   -0.4900
      5 C5        -12.1118   -1.8229   54.1176 C.ar    1  ZINC001579482641    0.0900
      6 C6        -11.3599   -0.9712   54.9288 C.ar    1  ZINC001579482641   -0.0800
      7 C7        -11.4527   -1.0877   56.3037 C.ar    1  ZINC001579482641   -0.1200
      8 C8        -12.2997   -2.0584   56.8333 C.ar    1  ZINC001579482641    0.1100
      9 N9        -12.4236   -2.2098   58.2077 N.3     1  ZINC001579482641   -0.4600
     10 C10       -11.1066   -2.4942   58.8328 C.3     1  ZINC001579482641    0.0400
     11 C11       -11.3287   -2.1108   60.3175 C.3     1  ZINC001579482641   -0.1100
     12 C12       -12.2383   -0.8645   60.2204 C.3     1  ZINC001579482641   -0.0100
     13 H13       -11.6419    0.0453   60.2889 H       1  ZINC001579482641    0.0900
     14 C14       -13.2788   -0.8902   61.3102 C.2     1  ZINC001579482641    0.1800
     15 N15       -14.3244   -1.6696   61.3631 N.2     1  ZINC001579482641   -0.2600
     16 N16       -14.9951   -1.4222   62.4320 N.2     1  ZINC001579482641   -0.2900
     17 C17       -14.4078   -0.4738   63.1096 C.2     1  ZINC001579482641    0.1500
     18 N18       -13.2991   -0.1126   62.4195 N.pl3   1  ZINC001579482641   -0.4800
     19 C19       -12.3248    0.9159   62.7927 C.3     1  ZINC001579482641    0.0700
     20 C20       -12.9076   -0.9619   58.8369 C.3     1  ZINC001579482641    0.0600
     21 C21       -13.0274   -2.8820   55.9576 C.ar    1  ZINC001579482641    0.2300
     22 C22       -13.9335   -3.9203   56.5069 C.2     1  ZINC001579482641    0.2100
     23 N23       -15.0453   -3.7163   57.1856 N.2     1  ZINC001579482641   -0.2600
     24 N24       -15.5418   -4.8674   57.4842 N.pl3   1  ZINC001579482641   -0.2300
     25 N25       -14.7804   -5.7941   57.0167 N.2     1  ZINC001579482641   -0.0500
     26 N26       -13.7843   -5.2489   56.4049 N.2     1  ZINC001579482641   -0.2000
     27 N27       -12.9157   -2.7361   54.6497 N.ar    1  ZINC001579482641   -0.4000
     28 H28       -13.7657    0.0809   53.6039 H       1  ZINC001579482641    0.0700
     29 H29       -14.5550    0.3027   52.0240 H       1  ZINC001579482641    0.1100
     30 H30       -14.6480   -1.2700   52.8525 H       1  ZINC001579482641    0.0700
     31 H31       -10.7118   -0.2288   54.4869 H       1  ZINC001579482641    0.1600
     32 H32       -10.8808   -0.4408   56.9525 H       1  ZINC001579482641    0.1600
     33 H33       -10.8577   -3.5515   58.7416 H       1  ZINC001579482641    0.1000
     34 H34       -10.3278   -1.8748   58.3878 H       1  ZINC001579482641    0.0600
     35 H35       -11.8330   -2.9157   60.8524 H       1  ZINC001579482641    0.1000
     36 H36       -10.3823   -1.8612   60.7971 H       1  ZINC001579482641    0.0800
     37 H37       -14.7415   -0.0569   64.0484 H       1  ZINC001579482641    0.2200
     38 H38       -11.5361    0.4671   63.3965 H       1  ZINC001579482641    0.0800
     39 H39       -11.8906    1.3491   61.8917 H       1  ZINC001579482641    0.0900
     40 H40       -12.8228    1.6967   63.3676 H       1  ZINC001579482641    0.0900
     41 H41       -12.6248   -0.1043   58.2265 H       1  ZINC001579482641    0.0600
     42 H42       -13.9909   -0.9992   58.9504 H       1  ZINC001579482641    0.1000
     43 H43       -16.3607   -5.0129   57.9835 H       1  ZINC001579482641    0.4800
@<TRIPOS>BOND
     1     1     2    1
     2     1    28    1
     3     1    29    1
     4     1    30    1
     5     2     3    1
     6     3     4    2
     7     3     5    1
     8     5    27   ar
     9     5     6   ar
    10     6     7   ar
    11     6    31    1
    12     7     8   ar
    13     7    32    1
    14     8     9    1
    15     8    21   ar
    16     9    20    1
    17     9    10    1
    18    10    11    1
    19    10    33    1
    20    10    34    1
    21    11    12    1
    22    11    35    1
    23    11    36    1
    24    12    13    1
    25    12    14    1
    26    12    20    1
    27    14    18    1
    28    14    15    2
    29    15    16    1
    30    16    17    2
    31    17    18    1
    32    17    37    1
    33    18    19    1
    34    19    38    1
    35    19    39    1
    36    19    40    1
    37    20    41    1
    38    20    42    1
    39    21    22    1
    40    21    27   ar
    41    22    26    1
    42    22    23    2
    43    23    24    1
    44    24    25    1
    45    24    43    1
    46    25    26    2
@<TRIPOS>SUBSTRUCTURE
     1 ZINC001579482641        1 TEMP              0 ****  ****    0 ROOT


##########                                Name:    ZINC000864730443
##########                DOCK_Rotatable_Bonds:                  10
##########                         Heavy_Atoms:                  25
##########                    Molecular_Weight:             356.462
##########                DOCK_Rotatable_Bonds:                  10
##########                       Formal_Charge:           0.0299988
##########                     HBond_Acceptors:                   7
##########                        HBond_Donors:                   2
##########                         Heavy_Atoms:                  25
##########                          Grid_Score:          -31.455212
##########                     Grid_vdw_energy:          -30.687799
##########                      Grid_es_energy:           -0.767412
##########           Internal_energy_repulsive:           22.870049

@<TRIPOS>MOLECULE
ZINC000864730443
 57 58 1 0 0
SMALL
USER_CHARGES


@<TRIPOS>ATOM
      1 C1        -12.8935   -0.9648   51.9702 C.3     1  ZINC000864730443   -0.1800
      2 C2        -11.7312   -1.0924   52.9569 C.3     1  ZINC000864730443    0.1400
      3 C3        -11.4143   -2.5720   53.1832 C.3     1  ZINC000864730443   -0.1800
      4 C4        -10.4984   -0.3883   52.3866 C.3     1  ZINC000864730443   -0.1400
      5 O5        -12.0988   -0.4775   54.2199 O.3     1  ZINC000864730443   -0.3600
      6 C6        -13.3367   -0.7298   54.6853 C.2     1  ZINC000864730443    0.6500
      7 O7        -14.2316    0.0702   54.4960 O.2     1  ZINC000864730443   -0.5700
      8 N8        -13.5834   -1.8696   55.3608 N.am    1  ZINC000864730443   -0.7100
      9 C9        -14.9308   -2.1450   55.8656 C.3     1  ZINC000864730443    0.1500
     10 C10       -14.8360   -2.7585   57.2640 C.3     1  ZINC000864730443   -0.1300
     11 C11       -13.4724   -3.3710   57.4539 C.2     1  ZINC000864730443    0.5300
     12 O12       -13.2752   -4.5236   57.1319 O.2     1  ZINC000864730443   -0.5300
     13 N13       -12.4719   -2.6382   57.9816 N.am    1  ZINC000864730443   -0.7200
     14 C14       -11.1462   -3.2337   58.1662 C.3     1  ZINC000864730443    0.1200
     15 C15       -10.1607   -2.1543   58.6186 C.3     1  ZINC000864730443   -0.1300
     16 C16       -10.4401   -1.7879   60.0776 C.3     1  ZINC000864730443    0.0800
     17 H17       -10.4957   -2.6884   60.6892 H       1  ZINC000864730443    0.0800
     18 C18        -9.3382   -0.8401   60.6146 C.3     1  ZINC000864730443   -0.1500
     19 C19       -10.1024   -0.1171   61.7570 C.3     1  ZINC000864730443   -0.1600
     20 C20       -11.5358   -0.0321   61.1898 C.3     1  ZINC000864730443    0.0500
     21 O21       -11.6626   -1.0405   60.1787 O.3     1  ZINC000864730443   -0.3800
     22 C22       -15.0605   -1.6691   58.3172 C.3     1  ZINC000864730443   -0.1000
     23 C23       -15.0409   -2.3081   59.7092 C.3     1  ZINC000864730443   -0.1600
     24 C24       -16.1058   -3.4062   59.7730 C.3     1  ZINC000864730443    0.0600
     25 O25       -15.8562   -4.3701   58.7481 O.3     1  ZINC000864730443   -0.3700
     26 C26       -15.9088   -3.8391   57.4223 C.3     1  ZINC000864730443    0.0800
     27 H27       -13.7718   -1.4665   52.3765 H       1  ZINC000864730443    0.0900
     28 H28       -13.1193    0.0893   51.8090 H       1  ZINC000864730443    0.0600
     29 H29       -12.6176   -1.4265   51.0222 H       1  ZINC000864730443    0.0700
     30 H30       -11.1384   -3.0336   52.2351 H       1  ZINC000864730443    0.0700
     31 H31       -10.5862   -2.6628   53.8861 H       1  ZINC000864730443    0.0600
     32 H32       -12.2926   -3.0736   53.5895 H       1  ZINC000864730443    0.0900
     33 H33       -10.7242    0.6659   52.2254 H       1  ZINC000864730443    0.0700
     34 H34        -9.6703   -0.4791   53.0895 H       1  ZINC000864730443    0.0700
     35 H35       -10.2225   -0.8499   51.4385 H       1  ZINC000864730443    0.0800
     36 H36       -12.8687   -2.5076   55.5129 H       1  ZINC000864730443    0.4100
     37 H37       -15.4976   -1.2152   55.9144 H       1  ZINC000864730443    0.0900
     38 H38       -15.4340   -2.8426   55.1962 H       1  ZINC000864730443    0.0800
     39 H39       -12.6296   -1.7163   58.2391 H       1  ZINC000864730443    0.4000
     40 H40       -11.2016   -4.0157   58.9235 H       1  ZINC000864730443    0.0700
     41 H41       -10.8067   -3.6638   57.2239 H       1  ZINC000864730443    0.0700
     42 H42        -9.1420   -2.5312   58.5273 H       1  ZINC000864730443    0.0800
     43 H43       -10.2783   -1.2696   57.9929 H       1  ZINC000864730443    0.0800
     44 H44        -8.4907   -1.4041   61.0042 H       1  ZINC000864730443    0.0900
     45 H45        -9.0190   -0.1346   59.8476 H       1  ZINC000864730443    0.0800
     46 H46       -10.0819   -0.7084   62.6724 H       1  ZINC000864730443    0.0800
     47 H47        -9.6932    0.8787   61.9279 H       1  ZINC000864730443    0.0800
     48 H48       -12.2592   -0.2143   61.9846 H       1  ZINC000864730443    0.0700
     49 H49       -11.7033    0.9529   60.7543 H       1  ZINC000864730443    0.0700
     50 H50       -14.2674   -0.9246   58.2465 H       1  ZINC000864730443    0.0800
     51 H51       -16.0261   -1.1921   58.1485 H       1  ZINC000864730443    0.0800
     52 H52       -14.0587   -2.7418   59.8970 H       1  ZINC000864730443    0.0900
     53 H53       -15.2548   -1.5490   60.4615 H       1  ZINC000864730443    0.0800
     54 H54       -16.0675   -3.8933   60.7473 H       1  ZINC000864730443    0.1000
     55 H55       -17.0916   -2.9654   59.6253 H       1  ZINC000864730443    0.0500
     56 H56       -16.8923   -3.4040   57.2439 H       1  ZINC000864730443    0.0700
     57 H57       -15.7288   -4.6382   56.7033 H       1  ZINC000864730443    0.1000
@<TRIPOS>BOND
     1     1     2    1
     2     1    27    1
     3     1    28    1
     4     1    29    1
     5     2     3    1
     6     2     4    1
     7     2     5    1
     8     3    30    1
     9     3    31    1
    10     3    32    1
    11     4    33    1
    12     4    34    1
    13     4    35    1
    14     5     6    1
    15     6     7    2
    16     6     8   am
    17     8     9    1
    18     8    36    1
    19     9    10    1
    20     9    37    1
    21     9    38    1
    22    10    26    1
    23    10    11    1
    24    10    22    1
    25    11    12    2
    26    11    13   am
    27    13    14    1
    28    13    39    1
    29    14    15    1
    30    14    40    1
    31    14    41    1
    32    15    16    1
    33    15    42    1
    34    15    43    1
    35    16    17    1
    36    16    21    1
    37    16    18    1
    38    18    19    1
    39    18    44    1
    40    18    45    1
    41    19    20    1
    42    19    46    1
    43    19    47    1
    44    20    21    1
    45    20    48    1
    46    20    49    1
    47    22    23    1
    48    22    50    1
    49    22    51    1
    50    23    24    1
    51    23    52    1
    52    23    53    1
    53    24    25    1
    54    24    54    1
    55    24    55    1
    56    25    26    1
    57    26    56    1
    58    26    57    1
@<TRIPOS>SUBSTRUCTURE
     1 ZINC000864730443        1 TEMP              0 ****  ****    0 ROOT


##########                                Name:    ZINC000626935317
##########                DOCK_Rotatable_Bonds:                   6
##########                         Heavy_Atoms:                  25
##########                    Molecular_Weight:             366.441
##########                DOCK_Rotatable_Bonds:                   6
##########                       Formal_Charge:          -0.0200006
##########                     HBond_Acceptors:                   9
##########                        HBond_Donors:                   2
##########                         Heavy_Atoms:                  25
##########                          Grid_Score:          -31.375580
##########                     Grid_vdw_energy:          -28.985929
##########                      Grid_es_energy:           -2.389650
##########           Internal_energy_repulsive:           12.390862

@<TRIPOS>MOLECULE
ZINC000626935317
 47 49 1 0 0
SMALL
USER_CHARGES


@<TRIPOS>ATOM
      1 C1         -2.0643    5.5198   51.6395 C.3     1  ZINC000626935317    0.0900
      2 N2         -2.7682    4.3118   51.2015 N.am    1  ZINC000626935317   -0.6200
      3 C3         -2.3089    3.4638   50.2653 C.2     1  ZINC000626935317    0.5200
      4 O4         -1.2640    3.5933   49.6633 O.2     1  ZINC000626935317   -0.5200
      5 C5         -3.2848    2.3242   50.0717 C.3     1  ZINC000626935317   -0.1500
      6 C6         -4.1947    2.3881   51.3204 C.3     1  ZINC000626935317   -0.1200
      7 H7         -3.8227    1.7330   52.1081 H       1  ZINC000626935317    0.1200
      8 C8         -5.6196    2.0472   50.9674 C.2     1  ZINC000626935317    0.5300
      9 O9         -6.0999    2.4494   49.9289 O.2     1  ZINC000626935317   -0.5200
     10 N10        -6.3602    1.2955   51.8059 N.am    1  ZINC000626935317   -0.7100
     11 C11        -7.7459    0.9656   51.4636 C.3     1  ZINC000626935317    0.1200
     12 C12        -8.3474   -0.1488   52.3359 C.3     1  ZINC000626935317   -0.1600
     13 C13        -8.7942    0.9587   53.3048 C.3     1  ZINC000626935317    0.1200
     14 N14        -7.7937    1.2859   54.3237 N.am    1  ZINC000626935317   -1.1100
     15 S15        -8.1863    2.2970   55.5750 S.o2    1  ZINC000626935317    2.6100
     16 C16        -9.5558    1.4601   56.4204 C.3     1  ZINC000626935317   -0.6700
     17 O17        -7.0257    2.3068   56.3950 O.2     1  ZINC000626935317   -0.9500
     18 O18        -8.6432    3.4821   54.9379 O.2     1  ZINC000626935317   -0.9500
     19 C19        -8.7790    1.9118   52.0980 C.3     1  ZINC000626935317   -0.1600
     20 C20        -4.0625    3.8689   51.7332 C.3     1  ZINC000626935317    0.2000
     21 H21        -4.8664    4.4572   51.2906 H       1  ZINC000626935317    0.1100
     22 C22        -4.0898    3.9962   53.2345 C.ar    1  ZINC000626935317   -0.1600
     23 C23        -3.1784    3.3013   54.0146 C.ar    1  ZINC000626935317   -0.0500
     24 C24        -3.2407    3.4493   55.3920 C.ar    1  ZINC000626935317   -0.1700
     25 C25        -4.2019    4.2785   55.9374 C.ar    1  ZINC000626935317    0.1000
     26 N26        -5.0531    4.9244   55.1644 N.ar    1  ZINC000626935317   -0.4800
     27 C27        -5.0200    4.8118   53.8510 C.ar    1  ZINC000626935317    0.1200
     28 H28        -1.4056    5.2745   52.4727 H       1  ZINC000626935317    0.0600
     29 H29        -1.4734    5.9156   50.8135 H       1  ZINC000626935317    0.0800
     30 H30        -2.7902    6.2679   51.9582 H       1  ZINC000626935317    0.0700
     31 H31        -3.8706    2.4734   49.1648 H       1  ZINC000626935317    0.1100
     32 H32        -2.7563    1.3717   50.0333 H       1  ZINC000626935317    0.1200
     33 H33        -5.9756    0.9728   52.6359 H       1  ZINC000626935317    0.4000
     34 H34        -7.8928    0.8124   50.3945 H       1  ZINC000626935317    0.1100
     35 H35        -9.1761   -0.6749   51.8621 H       1  ZINC000626935317    0.1100
     36 H36        -7.6022   -0.8234   52.7577 H       1  ZINC000626935317    0.0800
     37 H37        -9.7877    0.7979   53.7234 H       1  ZINC000626935317    0.1100
     38 H38        -6.9011    0.9104   54.2652 H       1  ZINC000626935317    0.4100
     39 H39        -9.2225    0.4847   56.7746 H       1  ZINC000626935317    0.1300
     40 H40        -9.8819    2.0625   57.2683 H       1  ZINC000626935317    0.1300
     41 H41       -10.3862    1.3303   55.7263 H       1  ZINC000626935317    0.1300
     42 H42        -8.3824    2.9007   52.3275 H       1  ZINC000626935317    0.0900
     43 H43        -9.7258    1.9489   51.5591 H       1  ZINC000626935317    0.1100
     44 H44        -2.4380    2.6597   53.5604 H       1  ZINC000626935317    0.1400
     45 H45        -2.5466    2.9227   56.0304 H       1  ZINC000626935317    0.1400
     46 H46        -4.2573    4.3989   57.0093 H       1  ZINC000626935317    0.1600
     47 H47        -5.7336    5.3564   53.2505 H       1  ZINC000626935317    0.1500
@<TRIPOS>BOND
     1     1     2    1
     2     1    28    1
     3     1    29    1
     4     1    30    1
     5     2    20    1
     6     2     3   am
     7     3     4    2
     8     3     5    1
     9     5     6    1
    10     5    31    1
    11     5    32    1
    12     6     7    1
    13     6     8    1
    14     6    20    1
    15     8     9    2
    16     8    10   am
    17    10    11    1
    18    10    33    1
    19    11    19    1
    20    11    12    1
    21    11    34    1
    22    12    13    1
    23    12    35    1
    24    12    36    1
    25    13    14    1
    26    13    19    1
    27    13    37    1
    28    14    15   am
    29    14    38    1
    30    15    16    1
    31    15    17    2
    32    15    18    2
    33    16    39    1
    34    16    40    1
    35    16    41    1
    36    19    42    1
    37    19    43    1
    38    20    21    1
    39    20    22    1
    40    22    27   ar
    41    22    23   ar
    42    23    24   ar
    43    23    44    1
    44    24    25   ar
    45    24    45    1
    46    25    26   ar
    47    25    46    1
    48    26    27   ar
    49    27    47    1
@<TRIPOS>SUBSTRUCTURE
     1 ZINC000626935317        1 TEMP              0 ****  ****    0 ROOT


##########                                Name:    ZINC000263872566
##########                DOCK_Rotatable_Bonds:                   9
##########                         Heavy_Atoms:                  26
##########                    Molecular_Weight:             362.469
##########                DOCK_Rotatable_Bonds:                   9
##########                       Formal_Charge:           0.0300001
##########                     HBond_Acceptors:                   6
##########                        HBond_Donors:                   2
##########                         Heavy_Atoms:                  26
##########                          Grid_Score:          -31.344481
##########                     Grid_vdw_energy:          -30.537064
##########                      Grid_es_energy:           -0.807418
##########           Internal_energy_repulsive:           21.942421

@<TRIPOS>MOLECULE
ZINC000263872566
 56 57 1 0 0
SMALL
USER_CHARGES


@<TRIPOS>ATOM
      1 C1         -3.2879    5.0247   53.2071 C.3     1  ZINC000263872566   -0.1800
      2 C2         -3.8199    4.8080   51.7891 C.3     1  ZINC000263872566    0.1400
      3 H3         -4.3529    5.7004   51.4606 H       1  ZINC000263872566    0.0700
      4 O4         -2.7273    4.5533   50.9041 O.3     1  ZINC000263872566   -0.5600
      5 C5         -4.7594    3.6298   51.7795 C.ar    1  ZINC000263872566   -0.0800
      6 C6         -4.2705    2.3579   51.5470 C.ar    1  ZINC000263872566   -0.0900
      7 C7         -5.1321    1.2770   51.5381 C.ar    1  ZINC000263872566   -0.1000
      8 C8         -6.4827    1.4680   51.7624 C.ar    1  ZINC000263872566   -0.1100
      9 C9         -7.4223    0.2897   51.7524 C.3     1  ZINC000263872566    0.1800
     10 N10        -8.5052    0.5206   52.7116 N.am    1  ZINC000263872566   -0.7400
     11 C11        -9.4827   -0.3958   52.8576 C.2     1  ZINC000263872566    0.7100
     12 O12        -9.4657   -1.4140   52.1933 O.2     1  ZINC000263872566   -0.5900
     13 N13       -10.4791   -0.1835   53.7401 N.am    1  ZINC000263872566   -0.6300
     14 C14       -11.5484   -1.1758   53.9148 C.3     1  ZINC000263872566    0.1100
     15 C15       -11.6504   -1.5343   55.4007 C.3     1  ZINC000263872566   -0.1200
     16 C16       -11.8406   -0.2547   56.2183 C.3     1  ZINC000263872566   -0.0800
     17 C17       -11.9754   -0.6065   57.6773 C.2     1  ZINC000263872566    0.4700
     18 O18       -13.0237   -1.0317   58.1020 O.2     1  ZINC000263872566   -0.5000
     19 O19       -10.9310   -0.4475   58.5054 O.3     1  ZINC000263872566   -0.3500
     20 C20       -10.5191   -1.6066   59.2770 C.3     1  ZINC000263872566    0.1200
     21 C21       -11.4216   -1.7492   60.5042 C.3     1  ZINC000263872566   -0.1800
     22 C22       -10.6336   -2.8626   58.4109 C.3     1  ZINC000263872566   -0.1400
     23 C23        -9.0682   -1.4292   59.7287 C.3     1  ZINC000263872566   -0.1800
     24 C24       -10.6300    0.6613   56.0244 C.3     1  ZINC000263872566   -0.1300
     25 C25       -10.5133    1.0420   54.5500 C.3     1  ZINC000263872566    0.1300
     26 C26        -6.9715    2.7397   51.9964 C.ar    1  ZINC000263872566   -0.1000
     27 C27        -6.1093    3.8201   52.0089 C.ar    1  ZINC000263872566   -0.1100
     28 H28        -2.7550    4.1325   53.5355 H       1  ZINC000263872566    0.0700
     29 H29        -2.6085    5.8771   53.2140 H       1  ZINC000263872566    0.0600
     30 H30        -4.1214    5.2191   53.8821 H       1  ZINC000263872566    0.0700
     31 H31        -2.9944    4.3543   49.9963 H       1  ZINC000263872566    0.3800
     32 H32        -3.2153    2.2086   51.3717 H       1  ZINC000263872566    0.1300
     33 H33        -4.7503    0.2834   51.3557 H       1  ZINC000263872566    0.1300
     34 H34        -7.8414    0.1677   50.7536 H       1  ZINC000263872566    0.0800
     35 H35        -6.8769   -0.6122   52.0303 H       1  ZINC000263872566    0.0800
     36 H36        -8.5188    1.3329   53.2416 H       1  ZINC000263872566    0.4000
     37 H37       -12.4952   -0.7564   53.5743 H       1  ZINC000263872566    0.0800
     38 H38       -11.3143   -2.0707   53.3382 H       1  ZINC000263872566    0.0800
     39 H39       -12.5020   -2.1963   55.5576 H       1  ZINC000263872566    0.0900
     40 H40       -10.7360   -2.0359   55.7175 H       1  ZINC000263872566    0.0800
     41 H41       -12.7419    0.2592   55.8839 H       1  ZINC000263872566    0.1100
     42 H42       -12.4553   -1.8756   60.1823 H       1  ZINC000263872566    0.0600
     43 H43       -11.1124   -2.6193   61.0834 H       1  ZINC000263872566    0.0700
     44 H44       -11.3400   -0.8543   61.1212 H       1  ZINC000263872566    0.0800
     45 H45        -9.9908   -2.7611   57.5367 H       1  ZINC000263872566    0.0700
     46 H46       -10.3245   -3.7327   58.9902 H       1  ZINC000263872566    0.0800
     47 H47       -11.6674   -2.9891   58.0891 H       1  ZINC000263872566    0.0700
     48 H48        -8.9866   -0.5343   60.3458 H       1  ZINC000263872566    0.0800
     49 H49        -8.7590   -2.2992   60.3079 H       1  ZINC000263872566    0.0700
     50 H50        -8.4252   -1.3275   58.8545 H       1  ZINC000263872566    0.0600
     51 H51       -10.7555    1.5621   56.6252 H       1  ZINC000263872566    0.0900
     52 H52        -9.7253    0.1391   56.3353 H       1  ZINC000263872566    0.0700
     53 H53        -9.5979    1.6121   54.3912 H       1  ZINC000263872566    0.1000
     54 H54       -11.3752    1.6420   54.2581 H       1  ZINC000263872566    0.0700
     55 H55        -8.0266    2.8889   52.1719 H       1  ZINC000263872566    0.1300
     56 H56        -6.4911    4.8136   52.1917 H       1  ZINC000263872566    0.1300
@<TRIPOS>BOND
     1     1     2    1
     2     1    28    1
     3     1    29    1
     4     1    30    1
     5     2     3    1
     6     2     4    1
     7     2     5    1
     8     4    31    1
     9     5    27   ar
    10     5     6   ar
    11     6     7   ar
    12     6    32    1
    13     7     8   ar
    14     7    33    1
    15     8     9    1
    16     8    26   ar
    17     9    10    1
    18     9    34    1
    19     9    35    1
    20    10    11   am
    21    10    36    1
    22    11    12    2
    23    11    13   am
    24    13    25    1
    25    13    14    1
    26    14    15    1
    27    14    37    1
    28    14    38    1
    29    15    16    1
    30    15    39    1
    31    15    40    1
    32    16    17    1
    33    16    24    1
    34    16    41    1
    35    17    18    2
    36    17    19    1
    37    19    20    1
    38    20    21    1
    39    20    22    1
    40    20    23    1
    41    21    42    1
    42    21    43    1
    43    21    44    1
    44    22    45    1
    45    22    46    1
    46    22    47    1
    47    23    48    1
    48    23    49    1
    49    23    50    1
    50    24    25    1
    51    24    51    1
    52    24    52    1
    53    25    53    1
    54    25    54    1
    55    26    27   ar
    56    26    55    1
    57    27    56    1
@<TRIPOS>SUBSTRUCTURE
     1 ZINC000263872566        1 TEMP              0 ****  ****    0 ROOT


##########                                Name:    ZINC000797321835
##########                DOCK_Rotatable_Bonds:                   4
##########                         Heavy_Atoms:                  22
##########                    Molecular_Weight:             381.253
##########                DOCK_Rotatable_Bonds:                   4
##########                       Formal_Charge:           0.0200001
##########                     HBond_Acceptors:                   7
##########                        HBond_Donors:                   1
##########                         Heavy_Atoms:                  22
##########                          Grid_Score:          -31.327929
##########                     Grid_vdw_energy:          -30.294739
##########                      Grid_es_energy:           -1.033190
##########           Internal_energy_repulsive:            6.991037

@<TRIPOS>MOLECULE
ZINC000797321835
 35 37 1 0 0
SMALL
USER_CHARGES


@<TRIPOS>ATOM
      1 C1         -5.0686    5.1248   51.0722 C.3     1  ZINC000797321835    0.1000
      2 N2         -4.1136    4.0536   50.7778 N.am    1  ZINC000797321835   -0.6000
      3 C3         -2.8151    4.0787   51.1245 C.2     1  ZINC000797321835    0.5200
      4 O4         -2.2713    4.9876   51.7152 O.2     1  ZINC000797321835   -0.5200
      5 C5         -2.1309    2.8079   50.6712 C.3     1  ZINC000797321835   -0.1500
      6 C6         -3.2959    1.8365   50.3706 C.3     1  ZINC000797321835   -0.1200
      7 C7         -4.4530    2.8126   50.0716 C.3     1  ZINC000797321835    0.1200
      8 H8         -4.5199    3.0015   49.0003 H       1  ZINC000797321835    0.1100
      9 C9         -5.7544    2.2511   50.5837 C.2     1  ZINC000797321835    0.4900
     10 O10        -6.7812    2.4409   49.9670 O.2     1  ZINC000797321835   -0.4400
     11 N11        -5.7770    1.5379   51.7271 N.am    1  ZINC000797321835   -0.6500
     12 C12        -6.9814    1.0182   52.2011 C.ar    1  ZINC000797321835    0.3000
     13 C13        -7.5174    1.4832   53.4026 C.ar    1  ZINC000797321835   -0.1400
     14 C14        -8.7139    0.9400   53.8341 C.ar    1  ZINC000797321835   -0.0800
     15 C15        -9.3134   -0.0441   53.0370 C.ar    1  ZINC000797321835    0.1100
     16 C16       -10.5917   -0.6565   53.4514 C.2     1  ZINC000797321835   -0.1400
     17 C17       -11.5744   -1.0485   52.6152 C.2     1  ZINC000797321835   -0.0900
     18 C18       -12.6771   -1.5948   53.2374 C.2     1  ZINC000797321835   -0.0900
     19 C19       -12.6039   -1.6521   54.5719 C.2     1  ZINC000797321835   -0.2000
     20 Br20      -13.9492   -2.3440   55.7066 Br      1  ZINC000797321835    0.0200
     21 S21       -11.0649   -0.9940   55.1114 S.3     1  ZINC000797321835    0.1900
     22 N22        -8.7274   -0.4237   51.9066 N.ar    1  ZINC000797321835   -0.1900
     23 N23        -7.6194    0.0873   51.5082 N.ar    1  ZINC000797321835   -0.2200
     24 H24        -5.5317    4.9423   52.0419 H       1  ZINC000797321835    0.0700
     25 H25        -4.5465    6.0814   51.0932 H       1  ZINC000797321835    0.0800
     26 H26        -5.8381    5.1478   50.3005 H       1  ZINC000797321835    0.0700
     27 H27        -1.5445    2.9906   49.7708 H       1  ZINC000797321835    0.1100
     28 H28        -1.4986    2.4109   51.4654 H       1  ZINC000797321835    0.1100
     29 H29        -3.0720    1.2155   49.5031 H       1  ZINC000797321835    0.1100
     30 H30        -3.5249    1.2209   51.2404 H       1  ZINC000797321835    0.0900
     31 H31        -4.9557    1.3860   52.2204 H       1  ZINC000797321835    0.4200
     32 H32        -7.0127    2.2445   53.9788 H       1  ZINC000797321835    0.1600
     33 H33        -9.1717    1.2641   54.7570 H       1  ZINC000797321835    0.1500
     34 H34       -11.5033   -0.9428   51.5427 H       1  ZINC000797321835    0.1600
     35 H35       -13.5364   -1.9497   52.6879 H       1  ZINC000797321835    0.1600
@<TRIPOS>BOND
     1     1     2    1
     2     1    24    1
     3     1    25    1
     4     1    26    1
     5     2     7    1
     6     2     3   am
     7     3     4    2
     8     3     5    1
     9     5     6    1
    10     5    27    1
    11     5    28    1
    12     6     7    1
    13     6    29    1
    14     6    30    1
    15     7     8    1
    16     7     9    1
    17     9    10    2
    18     9    11   am
    19    11    12    1
    20    11    31    1
    21    12    23   ar
    22    12    13   ar
    23    13    14   ar
    24    13    32    1
    25    14    15   ar
    26    14    33    1
    27    15    16    1
    28    15    22   ar
    29    16    21    1
    30    16    17    2
    31    17    18    1
    32    17    34    1
    33    18    19    2
    34    18    35    1
    35    19    20    1
    36    19    21    1
    37    22    23   ar
@<TRIPOS>SUBSTRUCTURE
     1 ZINC000797321835        1 TEMP              0 ****  ****    0 ROOT


##########                                Name:    ZINC000428748914
##########                DOCK_Rotatable_Bonds:                  11
##########                         Heavy_Atoms:                  30
##########                    Molecular_Weight:             413.492
##########                DOCK_Rotatable_Bonds:                  11
##########                       Formal_Charge:           0.0199993
##########                     HBond_Acceptors:                   7
##########                        HBond_Donors:                   3
##########                         Heavy_Atoms:                  30
##########                          Grid_Score:          -31.304392
##########                     Grid_vdw_energy:          -30.904356
##########                      Grid_es_energy:           -0.400035
##########           Internal_energy_repulsive:           22.940762

@<TRIPOS>MOLECULE
ZINC000428748914
 58 61 1 0 0
SMALL
USER_CHARGES


@<TRIPOS>ATOM
      1 O1        -11.5377    1.5094   54.8090 O.2     1  ZINC000428748914   -0.5900
      2 C2        -10.4446    1.0189   55.0167 C.2     1  ZINC000428748914    0.7000
      3 N3         -9.5241    0.9830   54.0330 N.am    1  ZINC000428748914   -0.7400
      4 C4         -9.8425    1.5296   52.7116 C.3     1  ZINC000428748914    0.1900
      5 C5         -8.5685    1.7399   51.9346 C.ar    1  ZINC000428748914   -0.2000
      6 C6         -8.5185    2.6737   50.9091 C.ar    1  ZINC000428748914   -0.0200
      7 C7         -7.3284    2.8353   50.2209 C.ar    1  ZINC000428748914   -0.1900
      8 C8         -6.2312    2.0623   50.5776 C.ar    1  ZINC000428748914    0.3300
      9 O9         -5.0588    2.2115   49.9111 O.3     1  ZINC000428748914   -0.3000
     10 C10        -4.0706    3.0477   50.5161 C.3     1  ZINC000428748914    0.0800
     11 C11        -4.7368    4.0761   51.4635 C.3     1  ZINC000428748914   -0.1400
     12 C12        -3.5880    4.4380   52.4374 C.3     1  ZINC000428748914   -0.1200
     13 C13        -2.8482    3.1032   52.6624 C.3     1  ZINC000428748914   -0.1200
     14 C14        -3.1550    2.2192   51.4408 C.3     1  ZINC000428748914   -0.1200
     15 N15        -6.3180    1.1822   51.5614 N.ar    1  ZINC000428748914   -0.5400
     16 C16        -7.4367    1.0098   52.2393 C.ar    1  ZINC000428748914    0.1600
     17 N17       -10.1517    0.5160   56.2324 N.am    1  ZINC000428748914   -0.7400
     18 C18       -11.1523    0.5551   57.3018 C.3     1  ZINC000428748914    0.1800
     19 C19       -10.4556    0.7885   58.6438 C.3     1  ZINC000428748914   -0.1300
     20 C20       -10.4627    2.2327   59.1487 C.3     1  ZINC000428748914    0.1100
     21 O21        -9.3201    2.9219   58.6372 O.3     1  ZINC000428748914   -0.5700
     22 C22        -9.2249   -0.0643   58.9585 C.3     1  ZINC000428748914   -0.1400
     23 C23       -10.5438   -0.3256   59.6887 C.3     1  ZINC000428748914   -0.1000
     24 H24       -11.0981   -1.2248   59.4201 H       1  ZINC000428748914    0.1200
     25 C25       -10.6302    0.0831   61.1367 C.ar    1  ZINC000428748914   -0.0700
     26 C26       -11.8453    0.4621   61.6761 C.ar    1  ZINC000428748914   -0.0900
     27 C27       -11.9258    0.8371   63.0037 C.ar    1  ZINC000428748914   -0.1500
     28 C28       -10.7888    0.8326   63.7939 C.ar    1  ZINC000428748914    0.1000
     29 F29       -10.8664    1.1985   65.0921 F       1  ZINC000428748914   -0.1400
     30 C30        -9.5724    0.4523   63.2528 C.ar    1  ZINC000428748914   -0.1500
     31 C31        -9.4953    0.0732   61.9260 C.ar    1  ZINC000428748914   -0.0800
     32 H32        -8.6507    0.5953   54.1998 H       1  ZINC000428748914    0.4000
     33 H33       -10.4845    0.8313   52.1745 H       1  ZINC000428748914    0.0800
     34 H34       -10.3590    2.4824   52.8274 H       1  ZINC000428748914    0.0800
     35 H35        -9.3883    3.2606   50.6535 H       1  ZINC000428748914    0.1400
     36 H36        -7.2541    3.5526   49.4170 H       1  ZINC000428748914    0.1400
     37 H37        -3.4820    3.5555   49.7519 H       1  ZINC000428748914    0.1000
     38 H38        -5.0652    4.9556   50.9096 H       1  ZINC000428748914    0.0700
     39 H39        -5.5702    3.6232   52.0006 H       1  ZINC000428748914    0.0800
     40 H40        -2.9214    5.1722   51.9849 H       1  ZINC000428748914    0.0700
     41 H41        -3.9898    4.8148   53.3780 H       1  ZINC000428748914    0.0700
     42 H42        -1.7750    3.2789   52.7361 H       1  ZINC000428748914    0.0700
     43 H43        -3.2116    2.6235   53.5712 H       1  ZINC000428748914    0.0700
     44 H44        -3.6673    1.3105   51.7568 H       1  ZINC000428748914    0.0800
     45 H45        -2.2306    1.9660   50.9216 H       1  ZINC000428748914    0.0700
     46 H46        -7.4703    0.2820   53.0365 H       1  ZINC000428748914    0.1600
     47 H47        -9.2784    0.1283   56.3993 H       1  ZINC000428748914    0.3900
     48 H48       -11.8558    1.3656   57.1117 H       1  ZINC000428748914    0.0700
     49 H49       -11.6896   -0.3929   57.3313 H       1  ZINC000428748914    0.0900
     50 H50       -11.3702    2.7319   58.8090 H       1  ZINC000428748914    0.0500
     51 H51       -10.4319    2.2369   60.2382 H       1  ZINC000428748914    0.0600
     52 H52        -8.4833    2.6453   59.0350 H       1  ZINC000428748914    0.3800
     53 H53        -8.9116   -0.7916   58.2095 H       1  ZINC000428748914    0.1100
     54 H54        -8.4199    0.4036   59.5252 H       1  ZINC000428748914    0.1100
     55 H55       -12.7321    0.4655   61.0594 H       1  ZINC000428748914    0.1400
     56 H56       -12.8750    1.1338   63.4247 H       1  ZINC000428748914    0.1400
     57 H57        -8.6849    0.4488   63.8681 H       1  ZINC000428748914    0.1400
     58 H58        -8.5467   -0.2237   61.5038 H       1  ZINC000428748914    0.1300
@<TRIPOS>BOND
     1     1     2    2
     2     2     3   am
     3     2    17   am
     4     3     4    1
     5     3    32    1
     6     4     5    1
     7     4    33    1
     8     4    34    1
     9     5    16   ar
    10     5     6   ar
    11     6     7   ar
    12     6    35    1
    13     7     8   ar
    14     7    36    1
    15     8     9    1
    16     8    15   ar
    17     9    10    1
    18    10    14    1
    19    10    11    1
    20    10    37    1
    21    11    12    1
    22    11    38    1
    23    11    39    1
    24    12    13    1
    25    12    40    1
    26    12    41    1
    27    13    14    1
    28    13    42    1
    29    13    43    1
    30    14    44    1
    31    14    45    1
    32    15    16   ar
    33    16    46    1
    34    17    18    1
    35    17    47    1
    36    18    19    1
    37    18    48    1
    38    18    49    1
    39    19    23    1
    40    19    20    1
    41    19    22    1
    42    20    21    1
    43    20    50    1
    44    20    51    1
    45    21    52    1
    46    22    23    1
    47    22    53    1
    48    22    54    1
    49    23    24    1
    50    23    25    1
    51    25    31   ar
    52    25    26   ar
    53    26    27   ar
    54    26    55    1
    55    27    28   ar
    56    27    56    1
    57    28    29    1
    58    28    30   ar
    59    30    31   ar
    60    30    57    1
    61    31    58    1
@<TRIPOS>SUBSTRUCTURE
     1 ZINC000428748914        1 TEMP              0 ****  ****    0 ROOT


##########                                Name:    ZINC000512239524
##########                DOCK_Rotatable_Bonds:                   9
##########                         Heavy_Atoms:                  31
##########                    Molecular_Weight:             424.518
##########                DOCK_Rotatable_Bonds:                   9
##########                       Formal_Charge:          0.00999919
##########                     HBond_Acceptors:                   7
##########                        HBond_Donors:                   1
##########                         Heavy_Atoms:                  31
##########                          Grid_Score:          -31.301846
##########                     Grid_vdw_energy:          -31.861929
##########                      Grid_es_energy:            0.560084
##########           Internal_energy_repulsive:           27.180307

@<TRIPOS>MOLECULE
ZINC000512239524
 60 63 1 0 0
SMALL
USER_CHARGES


@<TRIPOS>ATOM
      1 C1        -12.8908    0.3726   57.4774 C.3     1  ZINC000512239524   -0.1600
      2 C2        -11.8602   -0.4157   56.6665 C.3     1  ZINC000512239524    0.2000
      3 H3        -12.3619   -1.2138   56.1193 H       1  ZINC000512239524    0.1100
      4 N4        -11.1940    0.4817   55.7195 N.am    1  ZINC000512239524   -0.7400
      5 C5        -10.6647   -0.0111   54.5823 C.2     1  ZINC000512239524    0.7100
      6 O6        -10.7402   -1.2007   54.3423 O.2     1  ZINC000512239524   -0.5800
      7 N7        -10.0517    0.8145   53.7111 N.am    1  ZINC000512239524   -0.6300
      8 C8         -9.9474    2.2533   53.9899 C.3     1  ZINC000512239524    0.1300
      9 C9         -8.4769    2.6704   53.8855 C.3     1  ZINC000512239524   -0.1100
     10 C10        -7.9285    2.2536   52.5188 C.3     1  ZINC000512239524   -0.1000
     11 C11        -6.4919    2.6925   52.3993 C.2     1  ZINC000512239524    0.5300
     12 O12        -5.7948    2.7627   53.3894 O.2     1  ZINC000512239524   -0.5300
     13 N13        -5.9815    3.0072   51.1922 N.am    1  ZINC000512239524   -0.5800
     14 C14        -6.8239    2.9241   49.9965 C.3     1  ZINC000512239524    0.1500
     15 C15        -7.7932    4.0779   49.9838 C.ar    1  ZINC000512239524   -0.1100
     16 C16        -9.0336    3.9320   49.3912 C.ar    1  ZINC000512239524   -0.0900
     17 C17        -9.9227    4.9904   49.3796 C.ar    1  ZINC000512239524   -0.1200
     18 C18        -9.5717    6.1945   49.9609 C.ar    1  ZINC000512239524   -0.1100
     19 C19        -8.3317    6.3400   50.5542 C.ar    1  ZINC000512239524   -0.1200
     20 C20        -7.4442    5.2804   50.5697 C.ar    1  ZINC000512239524   -0.1100
     21 C21        -4.5844    3.4321   51.0759 C.3     1  ZINC000512239524    0.0700
     22 C22        -3.5025    2.3860   51.3512 C.3     1  ZINC000512239524   -0.1900
     23 C23        -3.7648    2.8566   49.9193 C.3     1  ZINC000512239524   -0.2000
     24 C24        -8.0102    0.7320   52.3770 C.3     1  ZINC000512239524   -0.1400
     25 C25        -9.4699    0.2920   52.4672 C.3     1  ZINC000512239524    0.1100
     26 C26       -10.8371   -1.0118   57.5987 C.ar    1  ZINC000512239524   -0.0800
     27 C27        -9.9133   -0.2071   58.2465 C.ar    1  ZINC000512239524   -0.1400
     28 C28        -8.9898   -0.7890   59.0946 C.ar    1  ZINC000512239524    0.1000
     29 N29        -8.9802   -2.0929   59.2907 N.ar    1  ZINC000512239524   -0.4600
     30 C30        -9.8429   -2.8908   58.6924 C.ar    1  ZINC000512239524    0.0800
     31 C31       -10.8008   -2.3802   57.8336 C.ar    1  ZINC000512239524    0.0600
     32 F32       -11.6819   -3.2029   57.2237 F       1  ZINC000512239524   -0.1200
     33 H33       -13.6308    0.8038   56.8033 H       1  ZINC000512239524    0.0700
     34 H34       -13.3866   -0.2952   58.1821 H       1  ZINC000512239524    0.0700
     35 H35       -12.3891    1.1707   58.0246 H       1  ZINC000512239524    0.0600
     36 H36       -11.1337    1.4308   55.9110 H       1  ZINC000512239524    0.3900
     37 H37       -10.5378    2.8102   53.2624 H       1  ZINC000512239524    0.0700
     38 H38       -10.3148    2.4582   54.9955 H       1  ZINC000512239524    0.1000
     39 H39        -8.3969    3.7519   53.9952 H       1  ZINC000512239524    0.0900
     40 H40        -7.9032    2.1809   54.6725 H       1  ZINC000512239524    0.0800
     41 H41        -8.5185    2.7237   51.7320 H       1  ZINC000512239524    0.1000
     42 H42        -6.1964    2.9670   49.1063 H       1  ZINC000512239524    0.0900
     43 H43        -7.3770    1.9849   50.0063 H       1  ZINC000512239524    0.1000
     44 H44        -9.3079    2.9913   48.9371 H       1  ZINC000512239524    0.1300
     45 H45       -10.8915    4.8767   48.9160 H       1  ZINC000512239524    0.1200
     46 H46       -10.2662    7.0216   49.9512 H       1  ZINC000512239524    0.1200
     47 H47        -8.0574    7.2808   51.0081 H       1  ZINC000512239524    0.1200
     48 H48        -6.4754    5.3941   51.0333 H       1  ZINC000512239524    0.1200
     49 H49        -4.3790    4.4599   51.3756 H       1  ZINC000512239524    0.1300
     50 H50        -2.5851    2.7253   51.8323 H       1  ZINC000512239524    0.1100
     51 H51        -3.8302    1.3815   51.6190 H       1  ZINC000512239524    0.1000
     52 H52        -4.2651    2.1616   49.2449 H       1  ZINC000512239524    0.1100
     53 H53        -3.0201    3.5053   49.4583 H       1  ZINC000512239524    0.1000
     54 H54        -7.5980    0.4338   51.4130 H       1  ZINC000512239524    0.0900
     55 H55        -7.4408    0.2608   53.1782 H       1  ZINC000512239524    0.0700
     56 H56        -9.5242   -0.7966   52.4660 H       1  ZINC000512239524    0.0800
     57 H57       -10.0244    0.6885   51.6166 H       1  ZINC000512239524    0.0800
     58 H58        -9.9146    0.8616   58.0903 H       1  ZINC000512239524    0.1400
     59 H59        -8.2669   -0.1681   59.6029 H       1  ZINC000512239524    0.1700
     60 H60        -9.8040   -3.9541   58.8774 H       1  ZINC000512239524    0.1700
@<TRIPOS>BOND
     1     1     2    1
     2     1    33    1
     3     1    34    1
     4     1    35    1
     5     2     3    1
     6     2     4    1
     7     2    26    1
     8     4     5   am
     9     4    36    1
    10     5     6    2
    11     5     7   am
    12     7    25    1
    13     7     8    1
    14     8     9    1
    15     8    37    1
    16     8    38    1
    17     9    10    1
    18     9    39    1
    19     9    40    1
    20    10    11    1
    21    10    24    1
    22    10    41    1
    23    11    12    2
    24    11    13   am
    25    13    14    1
    26    13    21    1
    27    14    15    1
    28    14    42    1
    29    14    43    1
    30    15    20   ar
    31    15    16   ar
    32    16    17   ar
    33    16    44    1
    34    17    18   ar
    35    17    45    1
    36    18    19   ar
    37    18    46    1
    38    19    20   ar
    39    19    47    1
    40    20    48    1
    41    21    23    1
    42    21    22    1
    43    21    49    1
    44    22    23    1
    45    22    50    1
    46    22    51    1
    47    23    52    1
    48    23    53    1
    49    24    25    1
    50    24    54    1
    51    24    55    1
    52    25    56    1
    53    25    57    1
    54    26    31   ar
    55    26    27   ar
    56    27    28   ar
    57    27    58    1
    58    28    29   ar
    59    28    59    1
    60    29    30   ar
    61    30    31   ar
    62    30    60    1
    63    31    32    1
@<TRIPOS>SUBSTRUCTURE
     1 ZINC000512239524        1 TEMP              0 ****  ****    0 ROOT


##########                                Name:    ZINC001078748831
##########                DOCK_Rotatable_Bonds:                   6
##########                         Heavy_Atoms:                  23
##########                    Molecular_Weight:             333.417
##########                DOCK_Rotatable_Bonds:                   6
##########                       Formal_Charge:           0.0299999
##########                     HBond_Acceptors:                   9
##########                        HBond_Donors:                   2
##########                         Heavy_Atoms:                  23
##########                          Grid_Score:          -31.298517
##########                     Grid_vdw_energy:          -30.471273
##########                      Grid_es_energy:           -0.827244
##########           Internal_energy_repulsive:            8.216431

@<TRIPOS>MOLECULE
ZINC001078748831
 42 45 1 0 0
SMALL
USER_CHARGES


@<TRIPOS>ATOM
      1 C1         -0.5648    2.0366   59.1016 C.3     1  ZINC001078748831    0.1000
      2 N2         -1.5007    2.3212   58.0110 N.pl3   1  ZINC001078748831   -0.1400
      3 N3         -2.6654    1.7903   57.8955 N.2     1  ZINC001078748831   -0.2900
      4 C4         -3.2435    2.2572   56.8150 C.2     1  ZINC001078748831    0.0400
      5 C5         -2.3187    3.1531   56.2423 C.2     1  ZINC001078748831   -0.0500
      6 C6         -2.4891    3.9459   55.0066 C.2     1  ZINC001078748831    0.6200
      7 O7         -1.7989    4.9280   54.8146 O.2     1  ZINC001078748831   -0.5200
      8 N8         -3.4099    3.5801   54.0928 N.am    1  ZINC001078748831   -0.7000
      9 C9         -3.5799    4.3670   52.8688 C.3     1  ZINC001078748831    0.1500
     10 H10        -3.0969    5.3427   52.9216 H       1  ZINC001078748831    0.1100
     11 C11        -5.0347    4.4241   52.3683 C.3     1  ZINC001078748831   -0.1800
     12 C12        -4.7268    3.1554   51.5524 C.3     1  ZINC001078748831    0.0800
     13 H13        -4.9227    2.2294   52.0931 H       1  ZINC001078748831    0.1000
     14 N14        -5.3116    3.1646   50.2049 N.3     1  ZINC001078748831   -0.6700
     15 C15        -6.7790    3.1354   50.2674 C.3     1  ZINC001078748831    0.1400
     16 C16        -7.2254    1.9095   51.0218 C.2     1  ZINC001078748831    0.0600
     17 N17        -7.2801    0.7151   50.5011 N.2     1  ZINC001078748831   -0.5700
     18 S18        -7.7863   -0.2760   51.5944 S.3     1  ZINC001078748831    0.6800
     19 N19        -7.9615    0.7358   52.7688 N.2     1  ZINC001078748831   -0.5700
     20 C20        -7.6179    1.9207   52.3460 C.2     1  ZINC001078748831    0.0500
     21 C21        -3.2586    3.5913   51.5909 C.3     1  ZINC001078748831   -0.1000
     22 C22        -2.6059    4.2778   50.3906 C.3     1  ZINC001078748831   -0.1000
     23 C23        -1.2819    3.6487   50.8610 C.3     1  ZINC001078748831   -0.1400
     24 C24        -2.1274    2.5633   51.5516 C.3     1  ZINC001078748831   -0.1200
     25 N25        -1.2668    3.1392   57.0468 N.2     1  ZINC001078748831   -0.2500
     26 H26        -0.7413    2.7316   59.9225 H       1  ZINC001078748831    0.1000
     27 H27        -0.7147    1.0152   59.4518 H       1  ZINC001078748831    0.1100
     28 H28         0.4578    2.1510   58.7420 H       1  ZINC001078748831    0.1100
     29 H29        -4.2251    2.0064   56.4410 H       1  ZINC001078748831    0.2100
     30 H30        -3.9598    2.7959   54.2456 H       1  ZINC001078748831    0.4100
     31 H31        -5.7730    4.2683   53.1549 H       1  ZINC001078748831    0.0700
     32 H32        -5.2498    5.2972   51.7521 H       1  ZINC001078748831    0.1000
     33 H33        -4.9881    3.9605   49.6758 H       1  ZINC001078748831    0.3500
     34 H34        -7.1387    4.0280   50.7792 H       1  ZINC001078748831    0.1000
     35 H35        -7.1853    3.1077   49.2563 H       1  ZINC001078748831    0.0600
     36 H36        -7.6434    2.8096   52.9590 H       1  ZINC001078748831    0.2000
     37 H37        -2.9525    3.8999   49.4288 H       1  ZINC001078748831    0.1000
     38 H38        -2.6182    5.3661   50.4491 H       1  ZINC001078748831    0.0700
     39 H39        -0.6659    3.2686   50.0459 H       1  ZINC001078748831    0.0700
     40 H40        -0.7241    4.2755   51.5568 H       1  ZINC001078748831    0.0800
     41 H41        -1.7574    2.2821   52.5376 H       1  ZINC001078748831    0.0700
     42 H42        -2.3394    1.7035   50.9161 H       1  ZINC001078748831    0.0900
@<TRIPOS>BOND
     1     1     2    1
     2     1    26    1
     3     1    27    1
     4     1    28    1
     5     2    25    1
     6     2     3    1
     7     3     4    2
     8     4     5    1
     9     4    29    1
    10     5     6    1
    11     5    25    2
    12     6     7    2
    13     6     8   am
    14     8     9    1
    15     8    30    1
    16     9    10    1
    17     9    21    1
    18     9    11    1
    19    11    12    1
    20    11    31    1
    21    11    32    1
    22    12    13    1
    23    12    14    1
    24    12    21    1
    25    14    15    1
    26    14    33    1
    27    15    16    1
    28    15    34    1
    29    15    35    1
    30    16    20    1
    31    16    17    2
    32    17    18    1
    33    18    19    1
    34    19    20    2
    35    20    36    1
    36    21    24    1
    37    21    22    1
    38    22    23    1
    39    22    37    1
    40    22    38    1
    41    23    24    1
    42    23    39    1
    43    23    40    1
    44    24    41    1
    45    24    42    1
@<TRIPOS>SUBSTRUCTURE
     1 ZINC001078748831        1 TEMP              0 ****  ****    0 ROOT


##########                                Name:    ZINC000995593866
##########                DOCK_Rotatable_Bonds:                   7
##########                         Heavy_Atoms:                  24
##########                    Molecular_Weight:             342.389
##########                DOCK_Rotatable_Bonds:                   7
##########                       Formal_Charge:                0.03
##########                     HBond_Acceptors:                   8
##########                        HBond_Donors:                   1
##########                         Heavy_Atoms:                  24
##########                          Grid_Score:          -31.250919
##########                     Grid_vdw_energy:          -30.851236
##########                      Grid_es_energy:           -0.399683
##########           Internal_energy_repulsive:           11.402861

@<TRIPOS>MOLECULE
ZINC000995593866
 48 50 1 0 0
SMALL
USER_CHARGES


@<TRIPOS>ATOM
      1 C1        -10.6260    1.6233   54.9434 C.3     1  ZINC000995593866   -0.1400
      2 C2        -11.0824    0.9738   53.6354 C.3     1  ZINC000995593866   -0.0800
      3 C3        -12.5679    1.2505   53.3953 C.3     1  ZINC000995593866   -0.1400
      4 C4        -10.2388    1.4974   52.4531 C.3     1  ZINC000995593866    0.1200
      5 N5         -9.1630    0.4924   52.2877 N.am    1  ZINC000995593866   -0.6300
      6 C6         -7.8640    0.7111   52.0024 C.2     1  ZINC000995593866    0.5400
      7 O7         -7.0998   -0.2250   51.8996 O.2     1  ZINC000995593866   -0.5300
      8 C8         -7.3612    2.1188   51.8114 C.3     1  ZINC000995593866   -0.1300
      9 C9         -6.1859    2.1121   50.8319 C.3     1  ZINC000995593866   -0.1000
     10 C10        -5.5147    3.4857   50.6656 C.3     1  ZINC000995593866   -0.1300
     11 C11        -4.1704    2.7393   50.6494 C.3     1  ZINC000995593866   -0.1400
     12 C12        -4.8659    1.6306   51.4569 C.3     1  ZINC000995593866   -0.1400
     13 C13        -9.8389   -0.8075   52.5066 C.3     1  ZINC000995593866    0.1100
     14 C14       -10.8188   -0.5459   53.6707 C.3     1  ZINC000995593866    0.0800
     15 H15       -10.3642   -0.8298   54.6198 H       1  ZINC000995593866    0.0700
     16 N16       -12.0692   -1.2883   53.4623 N.3     1  ZINC000995593866   -0.6800
     17 C17       -11.8507   -2.7350   53.5936 C.3     1  ZINC000995593866    0.1500
     18 C18       -11.9211   -3.1238   55.0478 C.2     1  ZINC000995593866    0.1900
     19 N19       -10.9086   -3.2585   55.8701 N.2     1  ZINC000995593866   -0.4300
     20 C20       -11.4458   -3.6131   57.0510 C.2     1  ZINC000995593866    0.0900
     21 C21       -10.6926   -3.8878   58.3270 C.3     1  ZINC000995593866    0.3800
     22 F22       -10.3560   -5.2443   58.3869 F       1  ZINC000995593866   -0.1800
     23 F23        -9.5260   -3.1161   58.3553 F       1  ZINC000995593866   -0.1700
     24 N24       -12.7338   -3.6748   56.8896 N.2     1  ZINC000995593866   -0.3400
     25 O25       -13.0278   -3.3916   55.7474 O.3     1  ZINC000995593866    0.1000
     26 H26        -9.5586    1.4508   55.0816 H       1  ZINC000995593866    0.0600
     27 H27       -10.8186    2.6954   54.9032 H       1  ZINC000995593866    0.0600
     28 H28       -11.1756    1.1865   55.7771 H       1  ZINC000995593866    0.0600
     29 H29       -12.7339    2.3267   53.3470 H       1  ZINC000995593866    0.0700
     30 H30       -12.8755    0.7929   52.4551 H       1  ZINC000995593866    0.0700
     31 H31       -13.1528    0.8291   54.2130 H       1  ZINC000995593866    0.0600
     32 H32       -10.8459    1.5566   51.5498 H       1  ZINC000995593866    0.0800
     33 H33        -9.8144    2.4726   52.6916 H       1  ZINC000995593866    0.0900
     34 H34        -8.1632    2.7400   51.4124 H       1  ZINC000995593866    0.0900
     35 H35        -7.0330    2.5207   52.7700 H       1  ZINC000995593866    0.0900
     36 H36        -6.4252    1.6243   49.8870 H       1  ZINC000995593866    0.1000
     37 H37        -5.7529    3.9766   49.7219 H       1  ZINC000995593866    0.0700
     38 H38        -5.6404    4.1404   51.5280 H       1  ZINC000995593866    0.0800
     39 H39        -3.8579    2.4239   49.6540 H       1  ZINC000995593866    0.0800
     40 H40        -3.3806    3.2503   51.2000 H       1  ZINC000995593866    0.0700
     41 H41        -4.8141    1.7781   52.5356 H       1  ZINC000995593866    0.0800
     42 H42        -4.5802    0.6238   51.1521 H       1  ZINC000995593866    0.0700
     43 H43       -10.3836   -1.1083   51.6116 H       1  ZINC000995593866    0.0900
     44 H44        -9.1129   -1.5713   52.7854 H       1  ZINC000995593866    0.0800
     45 H45       -12.7874   -0.9721   54.0964 H       1  ZINC000995593866    0.3600
     46 H46       -12.6194   -3.2706   53.0366 H       1  ZINC000995593866    0.1200
     47 H47       -10.8687   -2.9915   53.1961 H       1  ZINC000995593866    0.0800
     48 H48       -11.3190   -3.6308   59.1812 H       1  ZINC000995593866    0.1500
@<TRIPOS>BOND
     1     1     2    1
     2     1    26    1
     3     1    27    1
     4     1    28    1
     5     2    14    1
     6     2     3    1
     7     2     4    1
     8     3    29    1
     9     3    30    1
    10     3    31    1
    11     4     5    1
    12     4    32    1
    13     4    33    1
    14     5     6   am
    15     5    13    1
    16     6     7    2
    17     6     8    1
    18     8     9    1
    19     8    34    1
    20     8    35    1
    21     9    12    1
    22     9    10    1
    23     9    36    1
    24    10    11    1
    25    10    37    1
    26    10    38    1
    27    11    12    1
    28    11    39    1
    29    11    40    1
    30    12    41    1
    31    12    42    1
    32    13    14    1
    33    13    43    1
    34    13    44    1
    35    14    15    1
    36    14    16    1
    37    16    17    1
    38    16    45    1
    39    17    18    1
    40    17    46    1
    41    17    47    1
    42    18    25    1
    43    18    19    2
    44    19    20    1
    45    20    21    1
    46    20    24    2
    47    21    22    1
    48    21    23    1
    49    21    48    1
    50    24    25    1
@<TRIPOS>SUBSTRUCTURE
     1 ZINC000995593866        1 TEMP              0 ****  ****    0 ROOT


##########                                Name:    ZINC000563265674
##########                DOCK_Rotatable_Bonds:                   7
##########                         Heavy_Atoms:                  25
##########                    Molecular_Weight:             386.859
##########                DOCK_Rotatable_Bonds:                   7
##########                       Formal_Charge:          0.00999963
##########                     HBond_Acceptors:                  10
##########                        HBond_Donors:                   2
##########                         Heavy_Atoms:                  25
##########                          Grid_Score:          -31.245554
##########                     Grid_vdw_energy:          -29.530586
##########                      Grid_es_energy:           -1.714968
##########           Internal_energy_repulsive:           13.344754

@<TRIPOS>MOLECULE
ZINC000563265674
 44 45 1 0 0
SMALL
USER_CHARGES


@<TRIPOS>ATOM
      1 C1          3.2981    2.3803   59.5307 C.3     1  ZINC000563265674   -0.0600
      2 C2          2.1059    2.4746   58.6138 C.2     1  ZINC000563265674    0.1700
      3 N3          2.0802    2.1660   57.3517 N.2     1  ZINC000563265674   -0.3800
      4 O4          0.9714    2.3523   56.8965 O.3     1  ZINC000563265674    0.0900
      5 C5          0.1599    2.8114   57.8540 C.2     1  ZINC000563265674    0.1900
      6 C6         -1.2964    3.1677   57.7016 C.3     1  ZINC000563265674    0.2100
      7 C7         -2.1576    1.9491   58.0398 C.3     1  ZINC000563265674   -0.1400
      8 C8         -1.6426    4.3162   58.6512 C.3     1  ZINC000563265674   -0.1800
      9 N9         -1.5568    3.5820   56.3165 N.3     1  ZINC000563265674   -0.6600
     10 C10        -2.8323    4.3036   56.2139 C.3     1  ZINC000563265674    0.0400
     11 C11        -3.3543    4.2030   54.8038 C.2     1  ZINC000563265674    0.5200
     12 O12        -3.9293    5.1453   54.3012 O.2     1  ZINC000563265674   -0.4900
     13 N13        -3.1824    3.0658   54.1011 N.am    1  ZINC000563265674   -0.6700
     14 C14        -3.6673    2.9723   52.7913 C.ar    1  ZINC000563265674    0.1400
     15 C15        -5.0018    2.6655   52.5639 C.ar    1  ZINC000563265674   -0.0300
     16 C16        -5.4777    2.5743   51.2701 C.ar    1  ZINC000563265674   -0.6400
     17 S17        -7.1717    2.1854   50.9811 S.o2    1  ZINC000563265674    2.5000
     18 C18        -7.3461    0.4717   51.5500 C.3     1  ZINC000563265674   -0.6500
     19 O19        -7.8849    3.0693   51.8350 O.2     1  ZINC000563265674   -0.9300
     20 O20        -7.3120    2.2586   49.5690 O.2     1  ZINC000563265674   -0.9300
     21 C21        -4.6265    2.7881   50.2018 C.ar    1  ZINC000563265674   -0.0300
     22 C22        -3.2960    3.0935   50.4240 C.ar    1  ZINC000563265674   -0.1100
     23 C23        -2.8149    3.1919   51.7156 C.ar    1  ZINC000563265674   -0.0200
     24 Cl24       -1.1450    3.5759   51.9942 Cl      1  ZINC000563265674   -0.0500
     25 N25         0.8718    2.8880   58.9526 N.2     1  ZINC000563265674   -0.4700
     26 H26         3.3270    1.3916   59.9887 H       1  ZINC000563265674    0.0900
     27 H27         4.2111    2.5420   58.9576 H       1  ZINC000563265674    0.0900
     28 H28         3.2186    3.1392   60.3092 H       1  ZINC000563265674    0.0900
     29 H29        -1.9644    1.6416   59.0676 H       1  ZINC000563265674    0.0800
     30 H30        -3.2110    2.2067   57.9296 H       1  ZINC000563265674    0.0800
     31 H31        -1.9110    1.1308   57.3634 H       1  ZINC000563265674    0.0700
     32 H32        -1.0292    5.1844   58.4102 H       1  ZINC000563265674    0.0700
     33 H33        -2.6960    4.5739   58.5410 H       1  ZINC000563265674    0.0800
     34 H34        -1.4494    4.0088   59.6789 H       1  ZINC000563265674    0.0800
     35 H35        -0.7963    4.1390   55.9566 H       1  ZINC000563265674    0.3600
     36 H36        -3.5550    3.8637   56.9011 H       1  ZINC000563265674    0.1200
     37 H37        -2.6784    5.3518   56.4704 H       1  ZINC000563265674    0.0800
     38 H38        -2.7225    2.3122   54.5030 H       1  ZINC000563265674    0.4200
     39 H39        -5.6675    2.4979   53.3977 H       1  ZINC000563265674    0.1700
     40 H40        -7.0897    0.4122   52.6077 H       1  ZINC000563265674    0.1300
     41 H41        -8.3758    0.1443   51.4068 H       1  ZINC000563265674    0.1400
     42 H42        -6.6775   -0.1711   50.9773 H       1  ZINC000563265674    0.1400
     43 H43        -5.0013    2.7160   49.1915 H       1  ZINC000563265674    0.1500
     44 H44        -2.6336    3.2596   49.5873 H       1  ZINC000563265674    0.1500
@<TRIPOS>BOND
     1     1     2    1
     2     1    26    1
     3     1    27    1
     4     1    28    1
     5     2    25    1
     6     2     3    2
     7     3     4    1
     8     4     5    1
     9     5     6    1
    10     5    25    2
    11     6     7    1
    12     6     8    1
    13     6     9    1
    14     7    29    1
    15     7    30    1
    16     7    31    1
    17     8    32    1
    18     8    33    1
    19     8    34    1
    20     9    10    1
    21     9    35    1
    22    10    11    1
    23    10    36    1
    24    10    37    1
    25    11    12    2
    26    11    13   am
    27    13    14    1
    28    13    38    1
    29    14    23   ar
    30    14    15   ar
    31    15    16   ar
    32    15    39    1
    33    16    17    1
    34    16    21   ar
    35    17    18    1
    36    17    19    2
    37    17    20    2
    38    18    40    1
    39    18    41    1
    40    18    42    1
    41    21    22   ar
    42    21    43    1
    43    22    23   ar
    44    22    44    1
    45    23    24    1
@<TRIPOS>SUBSTRUCTURE
     1 ZINC000563265674        1 TEMP              0 ****  ****    0 ROOT


##########                                Name:    ZINC000894043060
##########                DOCK_Rotatable_Bonds:                  11
##########                         Heavy_Atoms:                  26
##########                    Molecular_Weight:             396.812
##########                DOCK_Rotatable_Bonds:                  11
##########                       Formal_Charge:          -0.0199999
##########                     HBond_Acceptors:                   9
##########                        HBond_Donors:                   2
##########                         Heavy_Atoms:                  26
##########                          Grid_Score:          -31.154266
##########                     Grid_vdw_energy:          -28.798759
##########                      Grid_es_energy:           -2.355508
##########           Internal_energy_repulsive:           13.782262

@<TRIPOS>MOLECULE
ZINC000894043060
 47 47 1 0 0
SMALL
USER_CHARGES


@<TRIPOS>ATOM
      1 C1         -3.1839    4.4267   50.7942 C.3     1  ZINC000894043060   -0.1700
      2 C2         -4.5915    3.8736   50.5623 C.3     1  ZINC000894043060    0.1000
      3 H3         -5.0895    4.4596   49.7899 H       1  ZINC000894043060    0.1100
      4 N4         -5.3592    3.9545   51.8075 N.am    1  ZINC000894043060   -0.7300
      5 C5         -6.6894    3.7383   51.7943 C.2     1  ZINC000894043060    0.5200
      6 O6         -7.2512    3.4782   50.7513 O.2     1  ZINC000894043060   -0.5200
      7 C7         -7.4787    3.8197   53.0754 C.3     1  ZINC000894043060   -0.1400
      8 C8         -7.2761    2.5354   53.8818 C.3     1  ZINC000894043060   -0.0200
      9 C9         -7.4603    2.8338   55.3711 C.3     1  ZINC000894043060   -0.1400
     10 C10        -6.2114    3.4809   55.9121 C.2     1  ZINC000894043060    0.5200
     11 O11        -6.2571    4.6072   56.3594 O.2     1  ZINC000894043060   -0.5200
     12 N12        -5.0438    2.8078   55.8986 N.am    1  ZINC000894043060   -0.7300
     13 C13        -3.8301    3.4363   56.4260 C.3     1  ZINC000894043060    0.1000
     14 H14        -4.1044    4.2304   57.1203 H       1  ZINC000894043060    0.1200
     15 C15        -2.9891    2.3876   57.1570 C.3     1  ZINC000894043060   -0.1700
     16 C16        -3.0183    4.0264   55.2712 C.3     1  ZINC000894043060    0.2600
     17 F17        -3.6786    5.1504   54.7634 F       1  ZINC000894043060   -0.1900
     18 F18        -1.7518    4.3991   55.7340 F       1  ZINC000894043060   -0.2000
     19 C19        -8.2860    1.5047   53.4473 C.ar    1  ZINC000894043060   -0.0600
     20 C20        -9.6252    1.6836   53.7398 C.ar    1  ZINC000894043060   -0.1200
     21 C21       -10.5521    0.7387   53.3415 C.ar    1  ZINC000894043060   -0.1200
     22 C22       -10.1392   -0.3864   52.6500 C.ar    1  ZINC000894043060   -0.0400
     23 Cl23      -11.3027   -1.5733   52.1490 Cl      1  ZINC000894043060   -0.0800
     24 C24        -8.7987   -0.5647   52.3576 C.ar    1  ZINC000894043060   -0.1100
     25 C25        -7.8736    0.3836   52.7515 C.ar    1  ZINC000894043060   -0.0400
     26 C26        -4.4985    2.4136   50.1144 C.3     1  ZINC000894043060    0.2600
     27 F27        -3.6517    2.3193   49.0048 F       1  ZINC000894043060   -0.2000
     28 F28        -3.9864    1.6370   51.1593 F       1  ZINC000894043060   -0.1900
     29 H29        -2.6860    3.8407   51.5667 H       1  ZINC000894043060    0.0600
     30 H30        -2.6128    4.3665   49.8678 H       1  ZINC000894043060    0.0800
     31 H31        -3.2502    5.4668   51.1133 H       1  ZINC000894043060    0.0800
     32 H32        -4.9100    4.1637   52.6414 H       1  ZINC000894043060    0.4000
     33 H33        -7.1358    4.6735   53.6598 H       1  ZINC000894043060    0.1000
     34 H34        -8.5369    3.9397   52.8433 H       1  ZINC000894043060    0.1000
     35 H35        -6.2699    2.1532   53.7096 H       1  ZINC000894043060    0.1000
     36 H36        -8.3061    3.5083   55.5046 H       1  ZINC000894043060    0.1000
     37 H37        -7.6492    1.9038   55.9073 H       1  ZINC000894043060    0.1000
     38 H38        -5.0070    1.9074   55.5397 H       1  ZINC000894043060    0.4000
     39 H39        -2.7149    1.5935   56.4625 H       1  ZINC000894043060    0.0700
     40 H40        -2.0861    2.8552   57.5493 H       1  ZINC000894043060    0.0800
     41 H41        -3.5675    1.9672   57.9797 H       1  ZINC000894043060    0.0700
     42 H42        -2.9122    3.2806   54.4833 H       1  ZINC000894043060    0.1200
     43 H43        -9.9473    2.5615   54.2799 H       1  ZINC000894043060    0.1200
     44 H44       -11.5982    0.8782   53.5704 H       1  ZINC000894043060    0.1300
     45 H45        -8.4758   -1.4429   51.8182 H       1  ZINC000894043060    0.1300
     46 H46        -6.8272    0.2447   52.5229 H       1  ZINC000894043060    0.1300
     47 H47        -5.4910    2.0521   49.8457 H       1  ZINC000894043060    0.1100
@<TRIPOS>BOND
     1     1     2    1
     2     1    29    1
     3     1    30    1
     4     1    31    1
     5     2     3    1
     6     2     4    1
     7     2    26    1
     8     4     5   am
     9     4    32    1
    10     5     6    2
    11     5     7    1
    12     7     8    1
    13     7    33    1
    14     7    34    1
    15     8     9    1
    16     8    19    1
    17     8    35    1
    18     9    10    1
    19     9    36    1
    20     9    37    1
    21    10    11    2
    22    10    12   am
    23    12    13    1
    24    12    38    1
    25    13    14    1
    26    13    15    1
    27    13    16    1
    28    15    39    1
    29    15    40    1
    30    15    41    1
    31    16    17    1
    32    16    18    1
    33    16    42    1
    34    19    25   ar
    35    19    20   ar
    36    20    21   ar
    37    20    43    1
    38    21    22   ar
    39    21    44    1
    40    22    23    1
    41    22    24   ar
    42    24    25   ar
    43    24    45    1
    44    25    46    1
    45    26    27    1
    46    26    28    1
    47    26    47    1
@<TRIPOS>SUBSTRUCTURE
     1 ZINC000894043060        1 TEMP              0 ****  ****    0 ROOT


##########                                Name:    ZINC000989658617
##########                DOCK_Rotatable_Bonds:                   6
##########                         Heavy_Atoms:                  24
##########                    Molecular_Weight:             334.418
##########                DOCK_Rotatable_Bonds:                   6
##########                       Formal_Charge:          -0.0100001
##########                     HBond_Acceptors:                   7
##########                        HBond_Donors:                   2
##########                         Heavy_Atoms:                  24
##########                          Grid_Score:          -31.146448
##########                     Grid_vdw_energy:          -29.368998
##########                      Grid_es_energy:           -1.777450
##########           Internal_energy_repulsive:           11.565813

@<TRIPOS>MOLECULE
ZINC000989658617
 50 52 1 0 0
SMALL
USER_CHARGES


@<TRIPOS>ATOM
      1 C1         -8.5465   -0.0545   64.1788 C.3     1  ZINC000989658617    0.0300
      2 O2         -9.5990   -0.2538   63.2330 O.3     1  ZINC000989658617   -0.3700
      3 C3        -10.0315    0.9435   62.5837 C.3     1  ZINC000989658617    0.0500
      4 C4        -11.0324    0.5998   61.5109 C.2     1  ZINC000989658617    0.5300
      5 O5        -12.0944    1.1834   61.4630 O.2     1  ZINC000989658617   -0.5100
      6 N6        -10.7472   -0.3561   60.6046 N.am    1  ZINC000989658617   -0.6200
      7 C7         -9.5003   -1.1404   60.5465 C.3     1  ZINC000989658617    0.1000
      8 C8         -9.3902   -1.6015   59.0717 C.3     1  ZINC000989658617   -0.1500
      9 C9        -10.8755   -1.8813   58.7211 C.3     1  ZINC000989658617    0.1400
     10 H10       -11.1709   -2.8748   59.0586 H       1  ZINC000989658617    0.1100
     11 N11       -11.1045   -1.7357   57.2814 N.am    1  ZINC000989658617   -0.7100
     12 C12       -11.0457   -2.8156   56.4771 C.2     1  ZINC000989658617    0.6100
     13 O13       -10.8012   -3.9102   56.9460 O.2     1  ZINC000989658617   -0.5200
     14 C14       -11.2783   -2.6691   55.0258 C.2     1  ZINC000989658617   -0.0100
     15 N15       -11.5661   -3.6354   54.1706 N.2     1  ZINC000989658617   -0.2600
     16 N16       -11.7050   -3.1517   52.9846 N.pl3   1  ZINC000989658617   -0.3700
     17 C17       -11.5131   -1.8225   53.0042 C.2     1  ZINC000989658617    0.0100
     18 C18       -11.2429   -1.4750   54.2865 C.2     1  ZINC000989658617   -0.1400
     19 C19       -10.9596   -0.0727   54.7501 C.3     1  ZINC000989658617   -0.0400
     20 C20       -10.6293    0.7837   53.5200 C.3     1  ZINC000989658617   -0.0900
     21 H21        -9.6564    0.4914   53.1247 H       1  ZINC000989658617    0.0700
     22 C22       -10.5942    2.2597   53.9209 C.3     1  ZINC000989658617   -0.1500
     23 C23       -11.7006    0.5720   52.4469 C.3     1  ZINC000989658617   -0.1100
     24 C24       -11.5777   -0.8400   51.8632 C.3     1  ZINC000989658617   -0.0500
     25 C25       -11.6308   -0.7939   59.5140 C.3     1  ZINC000989658617    0.1300
     26 H26       -11.8547    0.0513   58.8632 H       1  ZINC000989658617    0.0800
     27 C27       -12.9288   -1.3712   60.0821 C.3     1  ZINC000989658617   -0.1600
     28 H28        -7.6786    0.3685   63.6728 H       1  ZINC000989658617    0.0500
     29 H29        -8.8825    0.6303   64.9575 H       1  ZINC000989658617    0.0400
     30 H30        -8.2755   -1.0102   64.6275 H       1  ZINC000989658617    0.0900
     31 H31       -10.4952    1.6060   63.3146 H       1  ZINC000989658617    0.0800
     32 H32        -9.1735    1.4429   62.1336 H       1  ZINC000989658617    0.0800
     33 H33        -8.6471   -0.5170   60.8138 H       1  ZINC000989658617    0.0800
     34 H34        -9.5634   -2.0030   61.2099 H       1  ZINC000989658617    0.0800
     35 H35        -8.9832   -0.8088   58.4439 H       1  ZINC000989658617    0.0800
     36 H36        -8.7917   -2.5088   58.9896 H       1  ZINC000989658617    0.1000
     37 H37       -11.2984   -0.8622   56.9071 H       1  ZINC000989658617    0.4100
     38 H38       -11.9170   -3.6713   52.1934 H       1  ZINC000989658617    0.4500
     39 H39       -11.8372    0.3318   55.2545 H       1  ZINC000989658617    0.0800
     40 H40       -10.1110   -0.0761   55.4341 H       1  ZINC000989658617    0.0800
     41 H41        -9.8312    2.4109   54.6844 H       1  ZINC000989658617    0.0600
     42 H42       -10.3596    2.8681   53.0474 H       1  ZINC000989658617    0.0600
     43 H43       -11.5670    2.5520   54.3165 H       1  ZINC000989658617    0.0600
     44 H44       -12.6883    0.6927   52.8915 H       1  ZINC000989658617    0.0700
     45 H45       -11.5685    1.3066   51.6524 H       1  ZINC000989658617    0.0800
     46 H46       -10.6667   -0.9139   51.2694 H       1  ZINC000989658617    0.0800
     47 H47       -12.4435   -1.0551   51.2369 H       1  ZINC000989658617    0.0800
     48 H48       -12.6962   -2.2041   60.7457 H       1  ZINC000989658617    0.0600
     49 H49       -13.4565   -0.5981   60.6405 H       1  ZINC000989658617    0.0700
     50 H50       -13.5584   -1.7229   59.2647 H       1  ZINC000989658617    0.0700
@<TRIPOS>BOND
     1     1     2    1
     2     1    28    1
     3     1    29    1
     4     1    30    1
     5     2     3    1
     6     3     4    1
     7     3    31    1
     8     3    32    1
     9     4     5    2
    10     4     6   am
    11     6    25    1
    12     6     7    1
    13     7     8    1
    14     7    33    1
    15     7    34    1
    16     8     9    1
    17     8    35    1
    18     8    36    1
    19     9    10    1
    20     9    11    1
    21     9    25    1
    22    11    12   am
    23    11    37    1
    24    12    13    2
    25    12    14    1
    26    14    18    1
    27    14    15    2
    28    15    16    1
    29    16    17    1
    30    16    38    1
    31    17    24    1
    32    17    18    2
    33    18    19    1
    34    19    20    1
    35    19    39    1
    36    19    40    1
    37    20    21    1
    38    20    22    1
    39    20    23    1
    40    22    41    1
    41    22    42    1
    42    22    43    1
    43    23    24    1
    44    23    44    1
    45    23    45    1
    46    24    46    1
    47    24    47    1
    48    25    26    1
    49    25    27    1
    50    27    48    1
    51    27    49    1
    52    27    50    1
@<TRIPOS>SUBSTRUCTURE
     1 ZINC000989658617        1 TEMP              0 ****  ****    0 ROOT


##########                                Name:    ZINC000470948647
##########                DOCK_Rotatable_Bonds:                   6
##########                         Heavy_Atoms:                  29
##########                    Molecular_Weight:             412.556
##########                DOCK_Rotatable_Bonds:                   6
##########                       Formal_Charge:           0.0100001
##########                     HBond_Acceptors:                   7
##########                        HBond_Donors:                   1
##########                         Heavy_Atoms:                  29
##########                          Grid_Score:          -31.143230
##########                     Grid_vdw_energy:          -30.255173
##########                      Grid_es_energy:           -0.888057
##########           Internal_energy_repulsive:           13.799104

@<TRIPOS>MOLECULE
ZINC000470948647
 57 60 1 0 0
SMALL
USER_CHARGES


@<TRIPOS>ATOM
      1 C1        -11.3964    1.3892   63.5829 C.3     1  ZINC000470948647   -0.1100
      2 C2        -11.6949    0.3360   62.5473 C.ar    1  ZINC000470948647   -0.1000
      3 C3        -12.9945   -0.0958   62.3573 C.ar    1  ZINC000470948647   -0.1100
      4 C4        -13.2715   -1.0610   61.4087 C.ar    1  ZINC000470948647   -0.1100
      5 C5        -12.2431   -1.5974   60.6455 C.ar    1  ZINC000470948647    0.1400
      6 N6        -12.5203   -2.5750   59.6835 N.am    1  ZINC000470948647   -0.6700
      7 C7        -13.0554   -2.2214   58.4981 C.2     1  ZINC000470948647    0.5100
      8 O8        -13.2965   -1.0557   58.2652 O.2     1  ZINC000470948647   -0.4800
      9 C9        -13.3540   -3.2742   57.4620 C.3     1  ZINC000470948647    0.1200
     10 H10       -12.7971   -4.1775   57.7110 H       1  ZINC000470948647    0.1200
     11 C11       -14.8653   -3.5955   57.5013 C.3     1  ZINC000470948647   -0.0700
     12 S12       -15.4923   -2.5561   56.1158 S.3     1  ZINC000470948647   -0.2500
     13 C13       -13.9502   -2.7242   55.1248 C.3     1  ZINC000470948647    0.1600
     14 N14       -12.9078   -2.7925   56.1636 N.am    1  ZINC000470948647   -0.6000
     15 C15       -11.6291   -2.4369   55.9288 C.2     1  ZINC000470948647    0.6300
     16 O16       -10.8042   -2.5119   56.8187 O.2     1  ZINC000470948647   -0.5100
     17 C17       -11.2301   -1.9562   54.5904 C.2     1  ZINC000470948647   -0.0100
     18 N18       -10.4684   -0.9133   54.3264 N.2     1  ZINC000470948647   -0.2700
     19 N19       -10.3242   -0.7827   53.0566 N.pl3   1  ZINC000470948647   -0.2700
     20 C20        -9.5402    0.2702   52.4063 C.3     1  ZINC000470948647    0.1500
     21 C21        -9.5830    1.5391   53.2601 C.3     1  ZINC000470948647   -0.1300
     22 C22        -8.7640    2.6387   52.5809 C.3     1  ZINC000470948647   -0.1200
     23 C23        -7.3141    2.1747   52.4291 C.3     1  ZINC000470948647   -0.1300
     24 C24        -7.2713    0.9058   51.5753 C.3     1  ZINC000470948647   -0.1200
     25 C25        -8.0901   -0.1937   52.2544 C.3     1  ZINC000470948647   -0.1300
     26 C26       -10.9991   -1.7557   52.4075 C.2     1  ZINC000470948647   -0.0100
     27 C27       -11.5874   -2.5314   53.3479 C.2     1  ZINC000470948647   -0.1700
     28 C28       -10.9386   -1.1613   60.8385 C.ar    1  ZINC000470948647   -0.1100
     29 C29        -9.8195   -1.7404   60.0119 C.3     1  ZINC000470948647   -0.1100
     30 C30       -10.6691   -0.1925   61.7850 C.ar    1  ZINC000470948647   -0.1000
     31 H31       -11.4697    2.3771   63.1281 H       1  ZINC000470948647    0.0700
     32 H32       -12.1150    1.3105   64.3988 H       1  ZINC000470948647    0.0700
     33 H33       -10.3885    1.2418   63.9710 H       1  ZINC000470948647    0.0700
     34 H34       -13.7940    0.3219   62.9511 H       1  ZINC000470948647    0.1200
     35 H35       -14.2868   -1.3984   61.2612 H       1  ZINC000470948647    0.1400
     36 H36       -12.3274   -3.5073   59.8697 H       1  ZINC000470948647    0.4100
     37 H37       -15.0458   -4.6533   57.3100 H       1  ZINC000470948647    0.1200
     38 H38       -15.3060   -3.2903   58.4503 H       1  ZINC000470948647    0.1200
     39 H39       -13.9689   -3.6393   54.5330 H       1  ZINC000470948647    0.1000
     40 H40       -13.8037   -1.8526   54.4868 H       1  ZINC000470948647    0.1400
     41 H41        -9.9593    0.4801   51.4222 H       1  ZINC000470948647    0.1100
     42 H42       -10.6160    1.8696   53.3683 H       1  ZINC000470948647    0.0800
     43 H43        -9.1637    1.3291   54.2442 H       1  ZINC000470948647    0.0800
     44 H44        -9.1833    2.8486   51.5969 H       1  ZINC000470948647    0.0700
     45 H45        -8.7945    3.5426   53.1893 H       1  ZINC000470948647    0.0800
     46 H46        -6.7307    2.9580   51.9453 H       1  ZINC000470948647    0.0700
     47 H47        -6.8948    1.9647   53.4132 H       1  ZINC000470948647    0.0700
     48 H48        -7.6905    1.1158   50.5913 H       1  ZINC000470948647    0.0700
     49 H49        -6.2382    0.5753   51.4672 H       1  ZINC000470948647    0.0700
     50 H50        -7.6710   -0.4037   53.2385 H       1  ZINC000470948647    0.0700
     51 H51        -8.0597   -1.0977   51.6462 H       1  ZINC000470948647    0.0700
     52 H52       -11.0550   -1.8922   51.3376 H       1  ZINC000470948647    0.1800
     53 H53       -12.2054   -3.4018   53.1842 H       1  ZINC000470948647    0.1600
     54 H54        -9.6907   -1.1460   59.1074 H       1  ZINC000470948647    0.0700
     55 H55        -8.8958   -1.7264   60.5904 H       1  ZINC000470948647    0.0700
     56 H56       -10.0626   -2.7676   59.7401 H       1  ZINC000470948647    0.0600
     57 H57        -9.6550    0.1472   61.9353 H       1  ZINC000470948647    0.1300
@<TRIPOS>BOND
     1     1     2    1
     2     1    31    1
     3     1    32    1
     4     1    33    1
     5     2    30   ar
     6     2     3   ar
     7     3     4   ar
     8     3    34    1
     9     4     5   ar
    10     4    35    1
    11     5     6    1
    12     5    28   ar
    13     6     7   am
    14     6    36    1
    15     7     8    2
    16     7     9    1
    17     9    10    1
    18     9    14    1
    19     9    11    1
    20    11    12    1
    21    11    37    1
    22    11    38    1
    23    12    13    1
    24    13    14    1
    25    13    39    1
    26    13    40    1
    27    14    15   am
    28    15    16    2
    29    15    17    1
    30    17    27    1
    31    17    18    2
    32    18    19    1
    33    19    20    1
    34    19    26    1
    35    20    25    1
    36    20    21    1
    37    20    41    1
    38    21    22    1
    39    21    42    1
    40    21    43    1
    41    22    23    1
    42    22    44    1
    43    22    45    1
    44    23    24    1
    45    23    46    1
    46    23    47    1
    47    24    25    1
    48    24    48    1
    49    24    49    1
    50    25    50    1
    51    25    51    1
    52    26    27    2
    53    26    52    1
    54    27    53    1
    55    28    29    1
    56    28    30   ar
    57    29    54    1
    58    29    55    1
    59    29    56    1
    60    30    57    1
@<TRIPOS>SUBSTRUCTURE
     1 ZINC000470948647        1 TEMP              0 ****  ****    0 ROOT


##########                                Name:    ZINC001109848453
##########                DOCK_Rotatable_Bonds:                   8
##########                         Heavy_Atoms:                  24
##########                    Molecular_Weight:             328.337
##########                DOCK_Rotatable_Bonds:                   8
##########                       Formal_Charge:          0.00999966
##########                     HBond_Acceptors:                  11
##########                        HBond_Donors:                   2
##########                         Heavy_Atoms:                  24
##########                          Grid_Score:          -31.137228
##########                     Grid_vdw_energy:          -31.026552
##########                      Grid_es_energy:           -0.110676
##########           Internal_energy_repulsive:            6.923980

@<TRIPOS>MOLECULE
ZINC001109848453
 40 43 1 0 0
SMALL
USER_CHARGES


@<TRIPOS>ATOM
      1 O1        -12.4962   -0.7221   61.4428 O.2     1  ZINC001109848453   -0.5000
      2 C2        -13.1191   -1.6246   60.9247 C.2     1  ZINC001109848453    0.5000
      3 C3        -14.3987   -2.1143   61.5524 C.3     1  ZINC001109848453    0.1100
      4 N4        -15.3395   -2.5073   60.5003 N.pl3   1  ZINC001109848453   -0.3700
      5 C5        -16.2666   -1.7285   59.9165 C.2     1  ZINC001109848453    0.2600
      6 N6        -16.9016   -2.4494   59.0283 N.2     1  ZINC001109848453   -0.5400
      7 C7        -16.4101   -3.6878   59.0164 C.2     1  ZINC001109848453    0.2000
      8 N8        -15.4478   -3.7710   59.8972 N.2     1  ZINC001109848453   -0.2900
      9 N9        -12.6700   -2.1858   59.7847 N.am    1  ZINC001109848453   -0.7300
     10 C10       -11.4261   -1.7098   59.1746 C.3     1  ZINC001109848453    0.1700
     11 H11       -11.4742   -0.6283   59.0474 H       1  ZINC001109848453    0.1000
     12 C12       -11.2398   -2.3759   57.8099 C.3     1  ZINC001109848453    0.1200
     13 N13       -11.2635   -1.3539   56.7604 N.pl3   1  ZINC001109848453   -0.6800
     14 C14       -11.2984   -1.7303   55.4279 C.2     1  ZINC001109848453    0.4900
     15 N15       -11.8354   -2.8823   55.0756 N.2     1  ZINC001109848453   -0.5300
     16 C16       -11.8775   -3.2598   53.7953 C.2     1  ZINC001109848453    0.1400
     17 C17       -11.3741   -2.4815   52.8151 C.2     1  ZINC001109848453   -0.0500
     18 N18       -10.8057   -1.2770   53.1235 N.pl3   1  ZINC001109848453   -0.1800
     19 N19       -10.2567   -0.3418   52.4326 N.2     1  ZINC001109848453   -0.1000
     20 N20        -9.8745    0.6015   53.2219 N.2     1  ZINC001109848453   -0.0400
     21 N21       -10.1661    0.3011   54.4424 N.2     1  ZINC001109848453   -0.2600
     22 C22       -10.7637   -0.8799   54.4316 C.2     1  ZINC001109848453    0.1000
     23 C23       -10.2452   -2.0646   60.0806 C.3     1  ZINC001109848453   -0.1800
     24 C24        -8.8449   -1.6789   59.5996 C.3     1  ZINC001109848453   -0.1700
     25 C25        -9.4971   -0.9104   60.7506 C.3     1  ZINC001109848453   -0.1700
     26 H26       -14.1859   -2.9733   62.1888 H       1  ZINC001109848453    0.1300
     27 H27       -14.8373   -1.3172   62.1526 H       1  ZINC001109848453    0.1200
     28 H28       -16.4550   -0.6891   60.1417 H       1  ZINC001109848453    0.2200
     29 H29       -16.7490   -4.4913   58.3794 H       1  ZINC001109848453    0.2200
     30 H30       -13.1703   -2.9050   59.3683 H       1  ZINC001109848453    0.4000
     31 H31       -10.2830   -2.8975   57.7876 H       1  ZINC001109848453    0.1000
     32 H32       -12.0464   -3.0892   57.6406 H       1  ZINC001109848453    0.0900
     33 H33       -11.2546   -0.4137   56.9987 H       1  ZINC001109848453    0.4200
     34 H34       -12.3240   -4.2093   53.5390 H       1  ZINC001109848453    0.2000
     35 H35       -11.4198   -2.8099   51.7873 H       1  ZINC001109848453    0.1900
     36 H36       -10.3466   -2.9926   60.6433 H       1  ZINC001109848453    0.1100
     37 H37        -8.0247   -2.3533   59.8457 H       1  ZINC001109848453    0.1000
     38 H38        -8.7649   -1.1725   58.6378 H       1  ZINC001109848453    0.1000
     39 H39        -9.8462    0.1018   60.5460 H       1  ZINC001109848453    0.1200
     40 H40        -9.1060   -1.0790   61.7539 H       1  ZINC001109848453    0.0900
@<TRIPOS>BOND
     1     1     2    2
     2     2     3    1
     3     2     9   am
     4     3     4    1
     5     3    26    1
     6     3    27    1
     7     4     8    1
     8     4     5    1
     9     5     6    2
    10     5    28    1
    11     6     7    1
    12     7     8    2
    13     7    29    1
    14     9    10    1
    15     9    30    1
    16    10    11    1
    17    10    12    1
    18    10    23    1
    19    12    13    1
    20    12    31    1
    21    12    32    1
    22    13    14    1
    23    13    33    1
    24    14    22    1
    25    14    15    2
    26    15    16    1
    27    16    17    2
    28    16    34    1
    29    17    18    1
    30    17    35    1
    31    18    22    1
    32    18    19    1
    33    19    20    2
    34    20    21    1
    35    21    22    2
    36    23    25    1
    37    23    24    1
    38    23    36    1
    39    24    25    1
    40    24    37    1
    41    24    38    1
    42    25    39    1
    43    25    40    1
@<TRIPOS>SUBSTRUCTURE
     1 ZINC001109848453        1 TEMP              0 ****  ****    0 ROOT


##########                                Name:    ZINC000788423111
##########                DOCK_Rotatable_Bonds:                   7
##########                         Heavy_Atoms:                  23
##########                    Molecular_Weight:             399.243
##########                DOCK_Rotatable_Bonds:                   7
##########                       Formal_Charge:         1.04308e-07
##########                     HBond_Acceptors:                   8
##########                        HBond_Donors:                   1
##########                         Heavy_Atoms:                  23
##########                          Grid_Score:          -31.135380
##########                     Grid_vdw_energy:          -30.664648
##########                      Grid_es_energy:           -0.470731
##########           Internal_energy_repulsive:            4.727022

@<TRIPOS>MOLECULE
ZINC000788423111
 35 37 1 0 0
SMALL
USER_CHARGES


@<TRIPOS>ATOM
      1 O1        -12.1259   -3.7781   53.8643 O.3     1  ZINC000788423111   -0.5400
      2 C2        -11.7444   -2.4009   53.8604 C.3     1  ZINC000788423111    0.1000
      3 H3        -10.7669   -2.2933   54.3306 H       1  ZINC000788423111    0.1300
      4 C4        -12.7774   -1.5833   54.6384 C.3     1  ZINC000788423111    0.0300
      5 O5        -13.1182   -2.2701   55.8444 O.3     1  ZINC000788423111   -0.2900
      6 C6        -12.1344   -2.4158   56.7704 C.ar    1  ZINC000788423111    0.1700
      7 C7        -11.6951   -3.6829   57.1234 C.ar    1  ZINC000788423111   -0.2400
      8 C8        -10.6932   -3.8289   58.0668 C.ar    1  ZINC000788423111    0.1500
      9 F9        -10.2645   -5.0628   58.4114 F       1  ZINC000788423111   -0.1300
     10 C10       -10.1297   -2.7105   58.6573 C.ar    1  ZINC000788423111   -0.1600
     11 C11       -10.5677   -1.4461   58.3060 C.ar    1  ZINC000788423111   -0.0300
     12 Br12       -9.7960    0.0794   59.1144 Br      1  ZINC000788423111   -0.0200
     13 C13       -11.5642   -1.2965   57.3600 C.ar    1  ZINC000788423111   -0.1300
     14 C14       -11.6749   -1.8951   52.4181 C.3     1  ZINC000788423111    0.1000
     15 N15       -10.8347   -0.6964   52.3609 N.pl3   1  ZINC000788423111   -0.1300
     16 N16       -11.2568    0.5144   52.4741 N.2     1  ZINC000788423111   -0.0500
     17 N17       -10.2538    1.3195   52.3766 N.2     1  ZINC000788423111   -0.2600
     18 C18        -9.1568    0.5683   52.1942 C.2     1  ZINC000788423111    0.2400
     19 C19        -7.7695    1.0549   52.0304 C.2     1  ZINC000788423111   -0.1300
     20 C20        -6.6901    0.2744   51.8283 C.2     1  ZINC000788423111   -0.0800
     21 C21        -5.4983    0.9587   51.7048 C.2     1  ZINC000788423111   -0.1400
     22 C22        -5.5958    2.2875   51.8041 C.2     1  ZINC000788423111   -0.2000
     23 S23        -7.2749    2.7425   52.0618 S.3     1  ZINC000788423111    0.1700
     24 N24        -9.5567   -0.6895   52.1950 N.2     1  ZINC000788423111   -0.2900
     25 H25       -13.0734   -3.9241   53.7381 H       1  ZINC000788423111    0.3800
     26 H26       -12.3590   -0.6068   54.8823 H       1  ZINC000788423111    0.0900
     27 H27       -13.6717   -1.4535   54.0291 H       1  ZINC000788423111    0.0800
     28 H28       -12.1349   -4.5552   56.6626 H       1  ZINC000788423111    0.1500
     29 H29        -9.3476   -2.8253   59.3931 H       1  ZINC000788423111    0.1500
     30 H30       -11.9053   -0.3091   57.0861 H       1  ZINC000788423111    0.1500
     31 H31       -11.2468   -2.6695   51.7816 H       1  ZINC000788423111    0.1300
     32 H32       -12.6787   -1.6522   52.0695 H       1  ZINC000788423111    0.1300
     33 H33        -6.7526   -0.8021   51.7681 H       1  ZINC000788423111    0.1500
     34 H34        -4.5561    0.4572   51.5403 H       1  ZINC000788423111    0.1500
     35 H35        -4.7688    2.9783   51.7324 H       1  ZINC000788423111    0.1700
@<TRIPOS>BOND
     1     1     2    1
     2     1    25    1
     3     2     3    1
     4     2     4    1
     5     2    14    1
     6     4     5    1
     7     4    26    1
     8     4    27    1
     9     5     6    1
    10     6    13   ar
    11     6     7   ar
    12     7     8   ar
    13     7    28    1
    14     8     9    1
    15     8    10   ar
    16    10    11   ar
    17    10    29    1
    18    11    12    1
    19    11    13   ar
    20    13    30    1
    21    14    15    1
    22    14    31    1
    23    14    32    1
    24    15    24    1
    25    15    16    1
    26    16    17    2
    27    17    18    1
    28    18    19    1
    29    18    24    2
    30    19    23    1
    31    19    20    2
    32    20    21    1
    33    20    33    1
    34    21    22    2
    35    21    34    1
    36    22    23    1
    37    22    35    1
@<TRIPOS>SUBSTRUCTURE
     1 ZINC000788423111        1 TEMP              0 ****  ****    0 ROOT


##########                                Name:    ZINC000417533280
##########                DOCK_Rotatable_Bonds:                   9
##########                         Heavy_Atoms:                  26
##########                    Molecular_Weight:             367.439
##########                DOCK_Rotatable_Bonds:                   9
##########                       Formal_Charge:         -0.00999999
##########                     HBond_Acceptors:                   7
##########                        HBond_Donors:                   2
##########                         Heavy_Atoms:                  26
##########                          Grid_Score:          -31.109987
##########                     Grid_vdw_energy:          -30.870573
##########                      Grid_es_energy:           -0.239415
##########           Internal_energy_repulsive:           15.283952

@<TRIPOS>MOLECULE
ZINC000417533280
 53 54 1 0 0
SMALL
USER_CHARGES


@<TRIPOS>ATOM
      1 C1          2.0950    0.9793   51.1661 C.3     1  ZINC000417533280   -0.1600
      2 C2          1.9821    2.3202   51.8942 C.3     1  ZINC000417533280   -0.1200
      3 C3          0.8957    3.1701   51.2322 C.3     1  ZINC000417533280   -0.1200
      4 C4         -0.4264    2.3999   51.2343 C.3     1  ZINC000417533280   -0.1300
      5 C5         -1.5854    3.3757   51.0215 C.3     1  ZINC000417533280    0.1200
      6 N6         -2.8382    2.6264   50.8981 N.am    1  ZINC000417533280   -0.7300
      7 C7         -3.9888    3.2763   50.6334 C.2     1  ZINC000417533280    0.5200
      8 O8         -3.9868    4.4813   50.4957 O.2     1  ZINC000417533280   -0.5400
      9 C9         -5.2779    2.5056   50.5083 C.3     1  ZINC000417533280   -0.1100
     10 C10        -5.3961    1.5176   51.6710 C.3     1  ZINC000417533280   -0.1300
     11 C11        -6.6906    0.7121   51.5218 C.3     1  ZINC000417533280    0.1300
     12 N12        -7.8185    1.6466   51.4069 N.am    1  ZINC000417533280   -0.6200
     13 C13        -8.8816    1.5440   52.2289 C.2     1  ZINC000417533280    0.7100
     14 O14        -9.8088    2.3235   52.1237 O.2     1  ZINC000417533280   -0.5600
     15 N15        -8.9170    0.5774   53.1675 N.am    1  ZINC000417533280   -0.6800
     16 C16       -10.0218    0.4709   54.0217 C.ar    1  ZINC000417533280    0.1900
     17 C17       -10.1848    1.3745   55.0628 C.ar    1  ZINC000417533280   -0.1100
     18 C18       -11.2753    1.2691   55.9048 C.ar    1  ZINC000417533280   -0.1100
     19 C19       -12.2056    0.2630   55.7116 C.ar    1  ZINC000417533280    0.0500
     20 F20       -13.2713    0.1620   56.5359 F       1  ZINC000417533280   -0.1300
     21 C21       -12.0455   -0.6415   54.6723 C.ar    1  ZINC000417533280    0.0900
     22 F22       -12.9546   -1.6230   54.4850 F       1  ZINC000417533280   -0.1200
     23 C23       -10.9581   -0.5353   53.8246 C.ar    1  ZINC000417533280   -0.1300
     24 C24       -10.7836   -1.5172   52.6949 C.3     1  ZINC000417533280   -0.1200
     25 C25        -7.7652    2.6953   50.3792 C.3     1  ZINC000417533280    0.1100
     26 C26        -6.4587    3.4786   50.5413 C.3     1  ZINC000417533280   -0.1200
     27 H27         1.1407    0.4553   51.2197 H       1  ZINC000417533280    0.0500
     28 H28         2.3557    1.1535   50.1221 H       1  ZINC000417533280    0.0500
     29 H29         2.8690    0.3738   51.6376 H       1  ZINC000417533280    0.0500
     30 H30         1.7214    2.1460   52.9381 H       1  ZINC000417533280    0.0600
     31 H31         2.9364    2.8442   51.8406 H       1  ZINC000417533280    0.0600
     32 H32         0.7748    4.1009   51.7862 H       1  ZINC000417533280    0.0700
     33 H33         1.1845    3.3933   50.2051 H       1  ZINC000417533280    0.0700
     34 H34        -0.4191    1.6635   50.4306 H       1  ZINC000417533280    0.0700
     35 H35        -0.5496    1.8924   52.1910 H       1  ZINC000417533280    0.0700
     36 H36        -1.6500    4.0541   51.8722 H       1  ZINC000417533280    0.0700
     37 H37        -1.4143    3.9499   50.1109 H       1  ZINC000417533280    0.0700
     38 H38        -2.8396    1.6625   51.0070 H       1  ZINC000417533280    0.4000
     39 H39        -5.2841    1.9589   49.5654 H       1  ZINC000417533280    0.1000
     40 H40        -4.5426    0.8399   51.6607 H       1  ZINC000417533280    0.0800
     41 H41        -5.4149    2.0652   52.6133 H       1  ZINC000417533280    0.0800
     42 H42        -6.6351    0.0942   50.6255 H       1  ZINC000417533280    0.0700
     43 H43        -6.8292    0.0778   52.3972 H       1  ZINC000417533280    0.1000
     44 H44        -8.1774   -0.0444   53.2513 H       1  ZINC000417533280    0.4100
     45 H45        -9.4591    2.1599   55.2147 H       1  ZINC000417533280    0.1700
     46 H46       -11.4014    1.9722   56.7148 H       1  ZINC000417533280    0.1500
     47 H47       -11.2840   -1.1385   51.8037 H       1  ZINC000417533280    0.0800
     48 H48        -9.7214   -1.6476   52.4875 H       1  ZINC000417533280    0.0700
     49 H49       -11.2191   -2.4760   52.9763 H       1  ZINC000417533280    0.0800
     50 H50        -7.7975    2.2392   49.3898 H       1  ZINC000417533280    0.0800
     51 H51        -8.6131    3.3695   50.5009 H       1  ZINC000417533280    0.0800
     52 H52        -6.4676    4.0077   51.4942 H       1  ZINC000417533280    0.0800
     53 H53        -6.3616    4.1964   49.7269 H       1  ZINC000417533280    0.0900
@<TRIPOS>BOND
     1     1     2    1
     2     1    27    1
     3     1    28    1
     4     1    29    1
     5     2     3    1
     6     2    30    1
     7     2    31    1
     8     3     4    1
     9     3    32    1
    10     3    33    1
    11     4     5    1
    12     4    34    1
    13     4    35    1
    14     5     6    1
    15     5    36    1
    16     5    37    1
    17     6     7   am
    18     6    38    1
    19     7     8    2
    20     7     9    1
    21     9    26    1
    22     9    10    1
    23     9    39    1
    24    10    11    1
    25    10    40    1
    26    10    41    1
    27    11    12    1
    28    11    42    1
    29    11    43    1
    30    12    13   am
    31    12    25    1
    32    13    14    2
    33    13    15   am
    34    15    16    1
    35    15    44    1
    36    16    23   ar
    37    16    17   ar
    38    17    18   ar
    39    17    45    1
    40    18    19   ar
    41    18    46    1
    42    19    20    1
    43    19    21   ar
    44    21    22    1
    45    21    23   ar
    46    23    24    1
    47    24    47    1
    48    24    48    1
    49    24    49    1
    50    25    26    1
    51    25    50    1
    52    25    51    1
    53    26    52    1
    54    26    53    1
@<TRIPOS>SUBSTRUCTURE
     1 ZINC000417533280        1 TEMP              0 ****  ****    0 ROOT


##########                                Name:    ZINC000004313955
##########                DOCK_Rotatable_Bonds:                   6
##########                         Heavy_Atoms:                  26
##########                    Molecular_Weight:             414.358
##########                DOCK_Rotatable_Bonds:                   6
##########                       Formal_Charge:           0.0299997
##########                     HBond_Acceptors:                   9
##########                        HBond_Donors:                   2
##########                         Heavy_Atoms:                  26
##########                          Grid_Score:          -31.107492
##########                     Grid_vdw_energy:          -28.460903
##########                      Grid_es_energy:           -2.646590
##########           Internal_energy_repulsive:           11.537792

@<TRIPOS>MOLECULE
ZINC000004313955
 47 49 1 0 0
SMALL
USER_CHARGES


@<TRIPOS>ATOM
      1 C1        -14.6716   -4.9109   56.5252 C.3     1  ZINC000004313955   -0.1500
      2 C2        -14.5527   -3.7064   57.4612 C.3     1  ZINC000004313955   -0.1100
      3 H3        -13.8777   -3.9486   58.2819 H       1  ZINC000004313955    0.0800
      4 C4        -15.9333   -3.3567   58.0215 C.3     1  ZINC000004313955   -0.1100
      5 C5        -15.8104   -2.1727   58.9833 C.3     1  ZINC000004313955   -0.1100
      6 H6        -16.7902   -1.9392   59.3999 H       1  ZINC000004313955    0.0900
      7 C7        -14.8466   -2.5326   60.1158 C.3     1  ZINC000004313955   -0.1500
      8 C8        -15.2750   -0.9556   58.2226 C.3     1  ZINC000004313955    0.1200
      9 N9        -14.0175   -1.3277   57.5600 N.am    1  ZINC000004313955   -0.6000
     10 C10       -12.8985   -0.6018   57.7531 C.2     1  ZINC000004313955    0.5400
     11 O11       -12.9238    0.3699   58.4784 O.2     1  ZINC000004313955   -0.5300
     12 C12       -11.6161   -0.9974   57.0676 C.3     1  ZINC000004313955   -0.1400
     13 S13       -10.2854    0.1129   57.5901 S.3     1  ZINC000004313955    0.0800
     14 C14       -10.1803   -0.3170   59.2956 C.2     1  ZINC000004313955    0.1100
     15 N15       -10.4048   -1.5027   59.8159 N.2     1  ZINC000004313955   -0.2800
     16 N16       -10.2385   -1.4645   61.0897 N.2     1  ZINC000004313955   -0.2400
     17 C17        -9.8975   -0.2523   61.4609 C.2     1  ZINC000004313955    0.2500
     18 C18        -9.6178    0.1978   62.8409 C.ar    1  ZINC000004313955   -0.0100
     19 C19        -8.4293   -0.1730   63.4714 C.ar    1  ZINC000004313955   -0.0700
     20 C20        -8.1738    0.2500   64.7594 C.ar    1  ZINC000004313955   -0.1100
     21 C21        -9.0935    1.0407   65.4273 C.ar    1  ZINC000004313955   -0.0100
     22 Cl22       -8.7642    1.5681   67.0482 Cl      1  ZINC000004313955   -0.0500
     23 C23       -10.2746    1.4129   64.8078 C.ar    1  ZINC000004313955   -0.1100
     24 C24       -10.5395    1.0009   63.5172 C.ar    1  ZINC000004313955    0.0100
     25 Cl25      -12.0206    1.4679   62.7414 Cl      1  ZINC000004313955   -0.0100
     26 N26        -9.8445    0.5186   60.3226 N.pl3   1  ZINC000004313955   -0.3000
     27 N27        -9.5295    1.8452   60.2382 N.3     1  ZINC000004313955   -0.5800
     28 C28       -14.0022   -2.5069   56.6834 C.3     1  ZINC000004313955    0.1100
     29 H29       -13.6883   -5.1588   56.1254 H       1  ZINC000004313955    0.0600
     30 H30       -15.0644   -5.7637   57.0787 H       1  ZINC000004313955    0.0600
     31 H31       -15.3468   -4.6682   55.7046 H       1  ZINC000004313955    0.0600
     32 H32       -16.6012   -3.0913   57.2021 H       1  ZINC000004313955    0.0700
     33 H33       -16.3373   -4.2173   58.5547 H       1  ZINC000004313955    0.0700
     34 H34       -13.8666   -2.7649   59.6988 H       1  ZINC000004313955    0.0600
     35 H35       -14.7594   -1.6890   60.8005 H       1  ZINC000004313955    0.0600
     36 H36       -15.2271   -3.4002   60.6548 H       1  ZINC000004313955    0.0600
     37 H37       -16.0035   -0.6426   57.4747 H       1  ZINC000004313955    0.0700
     38 H38       -15.0920   -0.1394   58.9215 H       1  ZINC000004313955    0.1000
     39 H39       -11.3611   -2.0222   57.3375 H       1  ZINC000004313955    0.1300
     40 H40       -11.7448   -0.9273   55.9875 H       1  ZINC000004313955    0.1300
     41 H41        -7.7111   -0.7902   62.9521 H       1  ZINC000004313955    0.1600
     42 H42        -7.2542   -0.0365   65.2480 H       1  ZINC000004313955    0.1500
     43 H43       -10.9882    2.0297   65.3338 H       1  ZINC000004313955    0.1500
     44 H44       -10.3412    2.3951   59.9999 H       1  ZINC000004313955    0.3700
     45 H45        -9.1099    2.1725   61.0954 H       1  ZINC000004313955    0.3800
     46 H46       -12.9800   -2.7135   56.3668 H       1  ZINC000004313955    0.0900
     47 H47       -14.6270   -2.3209   55.8098 H       1  ZINC000004313955    0.0800
@<TRIPOS>BOND
     1     1     2    1
     2     1    29    1
     3     1    30    1
     4     1    31    1
     5     2     3    1
     6     2    28    1
     7     2     4    1
     8     4     5    1
     9     4    32    1
    10     4    33    1
    11     5     6    1
    12     5     7    1
    13     5     8    1
    14     7    34    1
    15     7    35    1
    16     7    36    1
    17     8     9    1
    18     8    37    1
    19     8    38    1
    20     9    10   am
    21     9    28    1
    22    10    11    2
    23    10    12    1
    24    12    13    1
    25    12    39    1
    26    12    40    1
    27    13    14    1
    28    14    26    1
    29    14    15    2
    30    15    16    1
    31    16    17    2
    32    17    18    1
    33    17    26    1
    34    18    24   ar
    35    18    19   ar
    36    19    20   ar
    37    19    41    1
    38    20    21   ar
    39    20    42    1
    40    21    22    1
    41    21    23   ar
    42    23    24   ar
    43    23    43    1
    44    24    25    1
    45    26    27    1
    46    27    44    1
    47    27    45    1
    48    28    46    1
    49    28    47    1
@<TRIPOS>SUBSTRUCTURE
     1 ZINC000004313955        1 TEMP              0 ****  ****    0 ROOT


##########                                Name:    ZINC000481838178
##########                DOCK_Rotatable_Bonds:                   6
##########                         Heavy_Atoms:                  29
##########                    Molecular_Weight:             408.524
##########                DOCK_Rotatable_Bonds:                   6
##########                       Formal_Charge:         -0.00999962
##########                     HBond_Acceptors:                   7
##########                        HBond_Donors:                   0
##########                         Heavy_Atoms:                  29
##########                          Grid_Score:          -31.103399
##########                     Grid_vdw_energy:          -30.716703
##########                      Grid_es_energy:           -0.386695
##########           Internal_energy_repulsive:            5.810127

@<TRIPOS>MOLECULE
ZINC000481838178
 53 57 1 0 0
SMALL
USER_CHARGES


@<TRIPOS>ATOM
      1 O1        -11.1118   -1.4070   55.4580 O.2     1  ZINC000481838178   -0.5200
      2 C2        -10.6954   -0.3288   55.8256 C.2     1  ZINC000481838178    0.5500
      3 C3        -10.3913    0.7462   54.8141 C.3     1  ZINC000481838178   -0.1500
      4 S4        -10.8780    0.1787   53.1658 S.3     1  ZINC000481838178    0.1000
      5 C5         -9.3068    0.1708   52.3685 C.2     1  ZINC000481838178    0.1600
      6 N6         -8.7093   -0.8705   51.8341 N.2     1  ZINC000481838178   -0.2800
      7 N7         -7.5759   -0.5253   51.3371 N.2     1  ZINC000481838178   -0.2500
      8 C8         -7.3764    0.7615   51.5224 C.2     1  ZINC000481838178    0.2700
      9 C9         -6.1992    1.5346   51.0984 C.2     1  ZINC000481838178    0.0300
     10 C10        -6.1851    2.5186   50.1554 C.2     1  ZINC000481838178   -0.1300
     11 C11        -4.8574    2.9805   50.0717 C.2     1  ZINC000481838178   -0.2100
     12 C12        -4.1332    2.2661   50.9560 C.2     1  ZINC000481838178   -0.0100
     13 O13        -4.9474    1.3977   51.5787 O.3     1  ZINC000481838178   -0.1700
     14 N14        -8.4838    1.2494   52.1849 N.pl3   1  ZINC000481838178   -0.4100
     15 C15        -8.7140    2.5706   52.5925 C.ar    1  ZINC000481838178    0.1000
     16 C16        -9.8422    3.2483   52.1506 C.ar    1  ZINC000481838178   -0.0800
     17 C17       -10.0663    4.5502   52.5539 C.ar    1  ZINC000481838178   -0.1100
     18 C18        -9.1683    5.1786   53.3970 C.ar    1  ZINC000481838178   -0.1000
     19 C19        -8.0436    4.5062   53.8388 C.ar    1  ZINC000481838178   -0.1100
     20 C20        -7.8171    3.2022   53.4436 C.ar    1  ZINC000481838178   -0.0900
     21 N21       -10.5099   -0.0901   57.1390 N.am    1  ZINC000481838178   -0.6200
     22 C22       -10.0193    1.1823   57.7329 C.3     1  ZINC000481838178    0.1000
     23 C23       -10.6004    1.1522   59.1515 C.3     1  ZINC000481838178   -0.1100
     24 H24       -11.6692    1.3659   59.1406 H       1  ZINC000481838178    0.0900
     25 C25        -9.8882    2.0032   60.1860 C.3     1  ZINC000481838178   -0.1100
     26 C26       -10.5630    1.7275   61.5400 C.3     1  ZINC000481838178   -0.1200
     27 C27       -10.5127    0.2469   61.9031 C.3     1  ZINC000481838178   -0.1200
     28 C28       -11.0983   -0.6309   60.7840 C.3     1  ZINC000481838178   -0.1000
     29 C29       -10.3272   -0.3376   59.5179 C.3     1  ZINC000481838178   -0.1100
     30 H30        -9.2595   -0.4716   59.6922 H       1  ZINC000481838178    0.0900
     31 C31       -10.7660   -1.0496   58.2419 C.3     1  ZINC000481838178    0.1200
     32 H32       -10.9467    1.6497   55.0660 H       1  ZINC000481838178    0.1300
     33 H33        -9.3229    0.9620   54.8232 H       1  ZINC000481838178    0.1300
     34 H34        -7.0287    2.8748   49.5829 H       1  ZINC000481838178    0.1600
     35 H35        -4.4889    3.7599   49.4214 H       1  ZINC000481838178    0.1600
     36 H36        -3.0742    2.3766   51.1373 H       1  ZINC000481838178    0.2100
     37 H37       -10.5438    2.7581   51.4919 H       1  ZINC000481838178    0.1300
     38 H38       -10.9436    5.0779   52.2103 H       1  ZINC000481838178    0.1400
     39 H39        -9.3454    6.1967   53.7108 H       1  ZINC000481838178    0.1300
     40 H40        -7.3438    4.9997   54.4969 H       1  ZINC000481838178    0.1400
     41 H41        -6.9385    2.6776   53.7889 H       1  ZINC000481838178    0.1300
     42 H42        -8.9298    1.1981   57.7635 H       1  ZINC000481838178    0.0800
     43 H43       -10.4024    2.0389   57.1782 H       1  ZINC000481838178    0.0800
     44 H44        -8.8347    1.7271   60.2328 H       1  ZINC000481838178    0.0700
     45 H45        -9.9858    3.0583   59.9301 H       1  ZINC000481838178    0.0700
     46 H46       -10.0538    2.3012   62.3145 H       1  ZINC000481838178    0.0600
     47 H47       -11.6042    2.0462   61.4898 H       1  ZINC000481838178    0.0600
     48 H48        -9.4759   -0.0419   62.0762 H       1  ZINC000481838178    0.0600
     49 H49       -11.0832    0.0852   62.8177 H       1  ZINC000481838178    0.0700
     50 H50       -10.9958   -1.6841   61.0458 H       1  ZINC000481838178    0.0700
     51 H51       -12.1493   -0.3857   60.6310 H       1  ZINC000481838178    0.0700
     52 H52       -11.8245   -1.3034   58.2975 H       1  ZINC000481838178    0.0700
     53 H53       -10.1701   -1.9493   58.0889 H       1  ZINC000481838178    0.0700
@<TRIPOS>BOND
     1     1     2    2
     2     2     3    1
     3     2    21   am
     4     3     4    1
     5     3    32    1
     6     3    33    1
     7     4     5    1
     8     5    14    1
     9     5     6    2
    10     6     7    1
    11     7     8    2
    12     8     9    1
    13     8    14    1
    14     9    13    1
    15     9    10    2
    16    10    11    1
    17    10    34    1
    18    11    12    2
    19    11    35    1
    20    12    13    1
    21    12    36    1
    22    14    15    1
    23    15    20   ar
    24    15    16   ar
    25    16    17   ar
    26    16    37    1
    27    17    18   ar
    28    17    38    1
    29    18    19   ar
    30    18    39    1
    31    19    20   ar
    32    19    40    1
    33    20    41    1
    34    21    31    1
    35    21    22    1
    36    22    23    1
    37    22    42    1
    38    22    43    1
    39    23    24    1
    40    23    29    1
    41    23    25    1
    42    25    26    1
    43    25    44    1
    44    25    45    1
    45    26    27    1
    46    26    46    1
    47    26    47    1
    48    27    28    1
    49    27    48    1
    50    27    49    1
    51    28    29    1
    52    28    50    1
    53    28    51    1
    54    29    30    1
    55    29    31    1
    56    31    52    1
    57    31    53    1
@<TRIPOS>SUBSTRUCTURE
     1 ZINC000481838178        1 TEMP              0 ****  ****    0 ROOT


##########                                Name:    ZINC000898967786
##########                DOCK_Rotatable_Bonds:                   5
##########                         Heavy_Atoms:                  25
##########                    Molecular_Weight:             356.448
##########                DOCK_Rotatable_Bonds:                   5
##########                       Formal_Charge:        -2.38419e-07
##########                     HBond_Acceptors:                   7
##########                        HBond_Donors:                   1
##########                         Heavy_Atoms:                  25
##########                          Grid_Score:          -31.096087
##########                     Grid_vdw_energy:          -30.475317
##########                      Grid_es_energy:           -0.620770
##########           Internal_energy_repulsive:            9.553764

@<TRIPOS>MOLECULE
ZINC000898967786
 45 48 1 0 0
SMALL
USER_CHARGES


@<TRIPOS>ATOM
      1 C1        -12.4985   -1.8608   53.3183 C.3     1  ZINC000898967786   -0.0800
      2 C2        -11.1807   -1.1458   53.1653 C.2     1  ZINC000898967786    0.0900
      3 C3        -10.7049   -0.1856   53.9882 C.2     1  ZINC000898967786   -0.1000
      4 C4        -11.3889    0.3607   55.2148 C.3     1  ZINC000898967786    0.2200
      5 N5        -10.9614   -0.3996   56.3918 N.am    1  ZINC000898967786   -0.7400
      6 C6        -10.6284    0.2463   57.5270 C.2     1  ZINC000898967786    0.7100
      7 O7        -10.6828    1.4600   57.5740 O.2     1  ZINC000898967786   -0.5800
      8 N8        -10.2351   -0.4532   58.6097 N.am    1  ZINC000898967786   -0.6300
      9 C9        -10.1615   -1.9225   58.5765 C.3     1  ZINC000898967786    0.0900
     10 C10       -10.9160   -2.4720   59.7924 C.3     1  ZINC000898967786    0.0500
     11 O11       -10.4258   -1.8384   60.9765 O.3     1  ZINC000898967786   -0.3700
     12 C12       -10.6353   -0.4248   61.0134 C.3     1  ZINC000898967786    0.1400
     13 H13       -11.6991   -0.2115   60.9089 H       1  ZINC000898967786    0.0700
     14 C14       -10.1385    0.1237   62.3261 C.2     1  ZINC000898967786   -0.1100
     15 C15       -10.8712    0.9389   63.0864 C.2     1  ZINC000898967786   -0.1800
     16 S16        -9.9664    1.3688   64.5321 S.3     1  ZINC000898967786    0.1100
     17 C17        -8.6037    0.3884   64.0072 C.2     1  ZINC000898967786   -0.2100
     18 C18        -8.8895   -0.1847   62.8370 C.2     1  ZINC000898967786   -0.1300
     19 C19        -9.8609    0.2300   59.8582 C.3     1  ZINC000898967786    0.0900
     20 N20        -9.4855    0.1975   53.4996 N.pl3   1  ZINC000898967786   -0.3500
     21 C21        -8.5693    1.1169   53.9215 C.2     1  ZINC000898967786    0.0600
     22 C22        -7.4190    1.3030   53.2408 C.2     1  ZINC000898967786   -0.1400
     23 C23        -7.1494    0.5507   52.0855 C.2     1  ZINC000898967786   -0.1000
     24 C24        -8.0541   -0.3690   51.6541 C.2     1  ZINC000898967786   -0.0800
     25 C25        -9.2505   -0.5520   52.3762 C.2     1  ZINC000898967786    0.2400
     26 N26       -10.2863   -1.3595   52.1974 N.2     1  ZINC000898967786   -0.4900
     27 H27       -12.3602   -2.7495   53.9341 H       1  ZINC000898967786    0.0800
     28 H28       -13.2190   -1.1966   53.7954 H       1  ZINC000898967786    0.0700
     29 H29       -12.8691   -2.1536   52.3359 H       1  ZINC000898967786    0.0800
     30 H30       -11.1216    1.4097   55.3431 H       1  ZINC000898967786    0.1000
     31 H31       -12.4690    0.2727   55.0981 H       1  ZINC000898967786    0.0700
     32 H32       -10.9179   -1.3679   56.3541 H       1  ZINC000898967786    0.4000
     33 H33       -10.6221   -2.2925   57.6606 H       1  ZINC000898967786    0.1100
     34 H34        -9.1191   -2.2388   58.6175 H       1  ZINC000898967786    0.0800
     35 H35       -11.9809   -2.2663   59.6836 H       1  ZINC000898967786    0.0600
     36 H36       -10.7578   -3.5482   59.8633 H       1  ZINC000898967786    0.1100
     37 H37       -11.8673    1.2826   62.8503 H       1  ZINC000898967786    0.1700
     38 H38        -7.6790    0.2654   64.5513 H       1  ZINC000898967786    0.1700
     39 H39        -8.1958   -0.8337   62.3233 H       1  ZINC000898967786    0.1400
     40 H40        -8.7894    0.1296   60.0310 H       1  ZINC000898967786    0.0800
     41 H41       -10.1251    1.2854   59.7907 H       1  ZINC000898967786    0.0900
     42 H42        -8.7669    1.7011   54.8081 H       1  ZINC000898967786    0.1600
     43 H43        -6.7025    2.0339   53.5856 H       1  ZINC000898967786    0.1500
     44 H44        -6.2285    0.7021   51.5421 H       1  ZINC000898967786    0.1500
     45 H45        -7.8576   -0.9529   50.7670 H       1  ZINC000898967786    0.1500
@<TRIPOS>BOND
     1     1     2    1
     2     1    27    1
     3     1    28    1
     4     1    29    1
     5     2    26    1
     6     2     3    2
     7     3     4    1
     8     3    20    1
     9     4     5    1
    10     4    30    1
    11     4    31    1
    12     5     6   am
    13     5    32    1
    14     6     7    2
    15     6     8   am
    16     8    19    1
    17     8     9    1
    18     9    10    1
    19     9    33    1
    20     9    34    1
    21    10    11    1
    22    10    35    1
    23    10    36    1
    24    11    12    1
    25    12    13    1
    26    12    14    1
    27    12    19    1
    28    14    18    1
    29    14    15    2
    30    15    16    1
    31    15    37    1
    32    16    17    1
    33    17    18    2
    34    17    38    1
    35    18    39    1
    36    19    40    1
    37    19    41    1
    38    20    25    1
    39    20    21    1
    40    21    22    2
    41    21    42    1
    42    22    23    1
    43    22    43    1
    44    23    24    2
    45    23    44    1
    46    24    25    1
    47    24    45    1
    48    25    26    2
@<TRIPOS>SUBSTRUCTURE
     1 ZINC000898967786        1 TEMP              0 ****  ****    0 ROOT


##########                                Name:    ZINC001181473921
##########                DOCK_Rotatable_Bonds:                   9
##########                         Heavy_Atoms:                  24
##########                    Molecular_Weight:             357.431
##########                DOCK_Rotatable_Bonds:                   9
##########                       Formal_Charge:        -5.96046e-08
##########                     HBond_Acceptors:                   9
##########                        HBond_Donors:                   4
##########                         Heavy_Atoms:                  24
##########                          Grid_Score:          -31.081873
##########                     Grid_vdw_energy:          -29.020435
##########                      Grid_es_energy:           -2.061437
##########           Internal_energy_repulsive:           13.494640

@<TRIPOS>MOLECULE
ZINC001181473921
 47 48 1 0 0
SMALL
USER_CHARGES


@<TRIPOS>ATOM
      1 C1        -12.1456    1.4149   63.0882 C.3     1  ZINC001181473921   -0.1300
      2 C2        -10.8166    0.7113   62.9891 C.2     1  ZINC001181473921    0.1900
      3 C3         -9.9852    0.7049   64.0529 C.2     1  ZINC001181473921   -0.2400
      4 C4         -8.7415    0.0481   63.9662 C.2     1  ZINC001181473921    0.2500
      5 O5         -7.8967    0.0325   65.0248 O.3     1  ZINC001181473921   -0.4600
      6 C6         -8.3971   -0.5804   62.7839 C.2     1  ZINC001181473921   -0.3700
      7 C7         -9.2923   -0.5465   61.7084 C.2     1  ZINC001181473921    0.5300
      8 O8         -9.0031   -1.0972   60.6574 O.2     1  ZINC001181473921   -0.5500
      9 N9        -10.4734    0.0869   61.8320 N.am    1  ZINC001181473921   -0.5000
     10 C10       -11.3994    0.1128   60.6970 C.3     1  ZINC001181473921    0.1000
     11 C11       -12.2651   -1.1486   60.7163 C.3     1  ZINC001181473921   -0.1600
     12 C12       -12.9676   -1.2961   59.3911 C.2     1  ZINC001181473921    0.5200
     13 O13       -13.5106   -0.3381   58.8827 O.2     1  ZINC001181473921   -0.5300
     14 N14       -12.9924   -2.4924   58.7710 N.am    1  ZINC001181473921   -0.7200
     15 C15       -13.6769   -2.6361   57.4837 C.3     1  ZINC001181473921    0.1400
     16 H16       -14.6646   -2.1764   57.5196 H       1  ZINC001181473921    0.1000
     17 C17       -13.7802   -4.1280   57.0805 C.3     1  ZINC001181473921   -0.1300
     18 C18       -13.9261   -4.0957   55.5451 C.3     1  ZINC001181473921   -0.1500
     19 C19       -13.3198   -2.7623   55.0739 C.3     1  ZINC001181473921   -0.0800
     20 H20       -14.0788   -2.1646   54.5691 H       1  ZINC001181473921    0.0900
     21 C21       -12.1461   -3.0254   54.1282 C.3     1  ZINC001181473921   -0.6200
     22 S22       -11.7385   -1.5021   53.2317 S.o2    1  ZINC001181473921    2.6100
     23 N23       -13.1182   -1.1345   52.3929 N.am    1  ZINC001181473921   -1.2500
     24 O24       -11.5793   -0.4182   54.1369 O.2     1  ZINC001181473921   -0.9600
     25 O25       -10.7729   -1.7610   52.2219 O.2     1  ZINC001181473921   -0.9600
     26 C26       -12.8288   -2.0263   56.3400 C.3     1  ZINC001181473921   -0.1200
     27 H27       -12.9452    0.7184   62.8361 H       1  ZINC001181473921    0.0900
     28 H28       -12.2886    1.7795   64.1055 H       1  ZINC001181473921    0.1000
     29 H29       -12.1641    2.2558   62.3951 H       1  ZINC001181473921    0.0900
     30 H30       -10.2725    1.2020   64.9677 H       1  ZINC001181473921    0.1500
     31 H31        -6.9785   -0.1626   64.7925 H       1  ZINC001181473921    0.4100
     32 H32        -7.4496   -1.0905   62.6913 H       1  ZINC001181473921    0.1500
     33 H33       -12.0382    0.9930   60.7693 H       1  ZINC001181473921    0.1000
     34 H34       -10.8328    0.1505   59.7666 H       1  ZINC001181473921    0.1100
     35 H35       -11.6340   -2.0198   60.8918 H       1  ZINC001181473921    0.1100
     36 H36       -13.0049   -1.0694   61.5127 H       1  ZINC001181473921    0.1000
     37 H37       -12.5572   -3.2583   59.1770 H       1  ZINC001181473921    0.4000
     38 H38       -12.8751   -4.6641   57.3665 H       1  ZINC001181473921    0.0700
     39 H39       -14.6569   -4.5869   57.5375 H       1  ZINC001181473921    0.0800
     40 H40       -13.3838   -4.9303   55.1008 H       1  ZINC001181473921    0.0900
     41 H41       -14.9794   -4.1452   55.2690 H       1  ZINC001181473921    0.0800
     42 H42       -11.2803   -3.3502   54.7053 H       1  ZINC001181473921    0.1400
     43 H43       -12.4208   -3.8037   53.4161 H       1  ZINC001181473921    0.1400
     44 H44       -13.1474   -0.3458   51.8291 H       1  ZINC001181473921    0.4100
     45 H45       -13.8972   -1.7079   52.4654 H       1  ZINC001181473921    0.4200
     46 H46       -13.0104   -0.9551   56.2532 H       1  ZINC001181473921    0.0800
     47 H47       -11.7698   -2.2222   56.5086 H       1  ZINC001181473921    0.0800
@<TRIPOS>BOND
     1     1     2    1
     2     1    27    1
     3     1    28    1
     4     1    29    1
     5     2     9    1
     6     2     3    2
     7     3     4    1
     8     3    30    1
     9     4     5    1
    10     4     6    2
    11     5    31    1
    12     6     7    1
    13     6    32    1
    14     7     8    2
    15     7     9   am
    16     9    10    1
    17    10    11    1
    18    10    33    1
    19    10    34    1
    20    11    12    1
    21    11    35    1
    22    11    36    1
    23    12    13    2
    24    12    14   am
    25    14    15    1
    26    14    37    1
    27    15    16    1
    28    15    26    1
    29    15    17    1
    30    17    18    1
    31    17    38    1
    32    17    39    1
    33    18    19    1
    34    18    40    1
    35    18    41    1
    36    19    20    1
    37    19    21    1
    38    19    26    1
    39    21    22    1
    40    21    42    1
    41    21    43    1
    42    22    23   am
    43    22    24    2
    44    22    25    2
    45    23    44    1
    46    23    45    1
    47    26    46    1
    48    26    47    1
@<TRIPOS>SUBSTRUCTURE
     1 ZINC001181473921        1 TEMP              0 ****  ****    0 ROOT


##########                                Name:    ZINC000558052810
##########                DOCK_Rotatable_Bonds:                   9
##########                         Heavy_Atoms:                  30
##########                    Molecular_Weight:             424.524
##########                DOCK_Rotatable_Bonds:                   9
##########                       Formal_Charge:          -0.0200002
##########                     HBond_Acceptors:                   8
##########                        HBond_Donors:                   1
##########                         Heavy_Atoms:                  30
##########                          Grid_Score:          -31.045931
##########                     Grid_vdw_energy:          -30.675138
##########                      Grid_es_energy:           -0.370792
##########           Internal_energy_repulsive:           15.518533

@<TRIPOS>MOLECULE
ZINC000558052810
 54 56 1 0 0
SMALL
USER_CHARGES


@<TRIPOS>ATOM
      1 C1         -7.3443    4.7799   50.8906 C.3     1  ZINC000558052810   -0.1700
      2 C2         -7.3698    3.2926   50.5326 C.3     1  ZINC000558052810    0.1100
      3 N3         -6.0636    2.6974   50.8256 N.am    1  ZINC000558052810   -0.6100
      4 C4         -4.8522    3.2540   50.2183 C.3     1  ZINC000558052810    0.0700
      5 C5         -5.9765    1.6379   51.6540 C.2     1  ZINC000558052810    0.5600
      6 O6         -4.8929    1.1439   51.8971 O.2     1  ZINC000558052810   -0.5300
      7 C7         -7.1993    1.0763   52.2671 C.ar    1  ZINC000558052810   -0.1100
      8 C8         -7.7669   -0.0912   51.7544 C.ar    1  ZINC000558052810   -0.1100
      9 C9         -8.9083   -0.6134   52.3284 C.ar    1  ZINC000558052810   -0.1000
     10 C10        -9.4935    0.0164   53.4106 C.ar    1  ZINC000558052810   -0.1300
     11 C11        -8.9364    1.1799   53.9282 C.ar    1  ZINC000558052810    0.1400
     12 N12        -9.5328    1.8139   55.0234 N.am    1  ZINC000558052810   -0.6600
     13 C13        -8.9288    1.7882   56.2280 C.2     1  ZINC000558052810    0.5600
     14 O14        -7.8653    1.2139   56.3628 O.2     1  ZINC000558052810   -0.4800
     15 C15        -9.5571    2.4559   57.3815 C.ar    1  ZINC000558052810   -0.1900
     16 C16        -8.9434    3.5576   57.9885 C.ar    1  ZINC000558052810   -0.0200
     17 C17        -9.5741    4.1491   59.0687 C.ar    1  ZINC000558052810   -0.1900
     18 C18       -10.7813    3.6415   59.5152 C.ar    1  ZINC000558052810    0.1500
     19 N19       -11.3442    2.6023   58.9308 N.ar    1  ZINC000558052810   -0.4900
     20 C20       -10.7874    2.0016   57.8894 C.ar    1  ZINC000558052810    0.1600
     21 S21       -11.5842    0.6162   57.1474 S.3     1  ZINC000558052810    0.0600
     22 C22       -10.6465   -0.7312   57.9097 C.3     1  ZINC000558052810   -0.0700
     23 C23       -11.4039   -1.2594   59.1006 C.2     1  ZINC000558052810   -0.2000
     24 C24       -12.4576   -2.1104   59.1084 C.2     1  ZINC000558052810   -0.0100
     25 C25       -13.1240   -2.7323   57.9083 C.3     1  ZINC000558052810   -0.0800
     26 O26       -12.7908   -2.2903   60.3942 O.3     1  ZINC000558052810    0.1000
     27 N27       -12.0715   -1.6578   61.1324 N.2     1  ZINC000558052810   -0.3600
     28 C28       -11.1751   -0.9865   60.4688 C.2     1  ZINC000558052810    0.0300
     29 C29       -10.1105   -0.0885   61.0445 C.3     1  ZINC000558052810   -0.0800
     30 C30        -7.7863    1.7086   53.3632 C.ar    1  ZINC000558052810   -0.0700
     31 H31        -7.1226    4.8946   51.9516 H       1  ZINC000558052810    0.0600
     32 H32        -6.5762    5.2821   50.3024 H       1  ZINC000558052810    0.0600
     33 H33        -8.3162    5.2228   50.6726 H       1  ZINC000558052810    0.0700
     34 H34        -8.1381    2.7905   51.1207 H       1  ZINC000558052810    0.0800
     35 H35        -7.5916    3.1780   49.4716 H       1  ZINC000558052810    0.0800
     36 H36        -4.4894    4.0833   50.8254 H       1  ZINC000558052810    0.0600
     37 H37        -4.0854    2.4813   50.1632 H       1  ZINC000558052810    0.0800
     38 H38        -5.0804    3.6114   49.2142 H       1  ZINC000558052810    0.0700
     39 H39        -7.3130   -0.5860   50.9085 H       1  ZINC000558052810    0.1400
     40 H40        -9.3460   -1.5170   51.9303 H       1  ZINC000558052810    0.1400
     41 H41       -10.3869   -0.3967   53.8552 H       1  ZINC000558052810    0.1300
     42 H42       -10.3810    2.2718   54.9158 H       1  ZINC000558052810    0.4100
     43 H43        -8.0004    3.9365   57.6228 H       1  ZINC000558052810    0.1400
     44 H44        -9.1271    5.0007   59.5600 H       1  ZINC000558052810    0.1500
     45 H45       -11.2715    4.1051   60.3586 H       1  ZINC000558052810    0.1700
     46 H46       -10.5062   -1.5322   57.1839 H       1  ZINC000558052810    0.1000
     47 H47        -9.6741   -0.3596   58.2332 H       1  ZINC000558052810    0.1000
     48 H48       -12.6397   -3.6803   57.6743 H       1  ZINC000558052810    0.0900
     49 H49       -14.1774   -2.9067   58.1273 H       1  ZINC000558052810    0.0900
     50 H50       -13.0369   -2.0595   57.0550 H       1  ZINC000558052810    0.0900
     51 H51        -9.2113   -0.6718   61.2428 H       1  ZINC000558052810    0.0800
     52 H52        -9.8799    0.7040   60.3327 H       1  ZINC000558052810    0.0800
     53 H53       -10.4704    0.3518   61.9745 H       1  ZINC000558052810    0.0800
     54 H54        -7.3517    2.6124   53.7641 H       1  ZINC000558052810    0.1500
@<TRIPOS>BOND
     1     1     2    1
     2     1    31    1
     3     1    32    1
     4     1    33    1
     5     2     3    1
     6     2    34    1
     7     2    35    1
     8     3     4    1
     9     3     5   am
    10     4    36    1
    11     4    37    1
    12     4    38    1
    13     5     6    2
    14     5     7    1
    15     7    30   ar
    16     7     8   ar
    17     8     9   ar
    18     8    39    1
    19     9    10   ar
    20     9    40    1
    21    10    11   ar
    22    10    41    1
    23    11    12    1
    24    11    30   ar
    25    12    13   am
    26    12    42    1
    27    13    14    2
    28    13    15    1
    29    15    20   ar
    30    15    16   ar
    31    16    17   ar
    32    16    43    1
    33    17    18   ar
    34    17    44    1
    35    18    19   ar
    36    18    45    1
    37    19    20   ar
    38    20    21    1
    39    21    22    1
    40    22    23    1
    41    22    46    1
    42    22    47    1
    43    23    28    1
    44    23    24    2
    45    24    25    1
    46    24    26    1
    47    25    48    1
    48    25    49    1
    49    25    50    1
    50    26    27    1
    51    27    28    2
    52    28    29    1
    53    29    51    1
    54    29    52    1
    55    29    53    1
    56    30    54    1
@<TRIPOS>SUBSTRUCTURE
     1 ZINC000558052810        1 TEMP              0 ****  ****    0 ROOT


##########                                Name:    ZINC000537799672
##########                DOCK_Rotatable_Bonds:                   9
##########                         Heavy_Atoms:                  29
##########                    Molecular_Weight:             401.478
##########                DOCK_Rotatable_Bonds:                   9
##########                       Formal_Charge:        -4.47035e-07
##########                     HBond_Acceptors:                   6
##########                        HBond_Donors:                   1
##########                         Heavy_Atoms:                  29
##########                          Grid_Score:          -31.040249
##########                     Grid_vdw_energy:          -30.238949
##########                      Grid_es_energy:           -0.801300
##########           Internal_energy_repulsive:           12.366754

@<TRIPOS>MOLECULE
ZINC000537799672
 57 59 1 0 0
SMALL
USER_CHARGES


@<TRIPOS>ATOM
      1 C1         -8.8730   -1.8701   60.1689 C.3     1  ZINC000537799672    0.0300
      2 O2         -9.8441   -1.0884   59.4703 O.3     1  ZINC000537799672   -0.3800
      3 C3        -10.1080    0.1817   60.0693 C.3     1  ZINC000537799672    0.1200
      4 H4         -9.6188    0.2334   61.0420 H       1  ZINC000537799672    0.0900
      5 C5         -9.5761    1.2765   59.1807 C.ar    1  ZINC000537799672   -0.1300
      6 C6         -9.6437    2.5945   59.5926 C.ar    1  ZINC000537799672   -0.0600
      7 C7         -9.1563    3.5993   58.7786 C.ar    1  ZINC000537799672   -0.1500
      8 C8         -8.5998    3.2856   57.5502 C.ar    1  ZINC000537799672    0.1000
      9 F9         -8.1227    4.2670   56.7537 F       1  ZINC000537799672   -0.1400
     10 C10        -8.5323    1.9652   57.1388 C.ar    1  ZINC000537799672   -0.1500
     11 C11        -9.0159    0.9616   57.9566 C.ar    1  ZINC000537799672   -0.0800
     12 C12       -11.6173    0.3579   60.2477 C.3     1  ZINC000537799672    0.1600
     13 H13       -11.9693    1.1579   59.5963 H       1  ZINC000537799672    0.1000
     14 C14       -11.9204    0.7154   61.7041 C.3     1  ZINC000537799672   -0.1600
     15 N15       -12.2993   -0.8911   59.8995 N.am    1  ZINC000537799672   -0.7100
     16 C16       -13.0731   -0.9518   58.7977 C.2     1  ZINC000537799672    0.5600
     17 O17       -13.2041    0.0293   58.0922 O.2     1  ZINC000537799672   -0.5400
     18 C18       -13.7627   -2.2118   58.4472 C.ar    1  ZINC000537799672   -0.1400
     19 C19       -14.8465   -2.6526   59.2080 C.ar    1  ZINC000537799672   -0.0800
     20 C20       -15.4859   -3.8290   58.8752 C.ar    1  ZINC000537799672   -0.1300
     21 C21       -15.0548   -4.5714   57.7904 C.ar    1  ZINC000537799672   -0.0900
     22 C22       -13.9806   -4.1401   57.0321 C.ar    1  ZINC000537799672   -0.1100
     23 C23       -13.3363   -2.9626   57.3504 C.ar    1  ZINC000537799672   -0.0300
     24 C24       -12.1669   -2.4942   56.5232 C.3     1  ZINC000537799672    0.1100
     25 O25       -12.6468   -1.8647   55.3335 O.3     1  ZINC000537799672   -0.3800
     26 C26       -11.6128   -1.4376   54.4443 C.3     1  ZINC000537799672    0.0900
     27 C27       -12.0309   -1.7212   52.9982 C.3     1  ZINC000537799672   -0.1800
     28 C28       -10.9532   -1.1895   52.0500 C.3     1  ZINC000537799672    0.0600
     29 O29       -10.7666    0.2086   52.2790 O.3     1  ZINC000537799672   -0.3800
     30 C30       -10.3295    0.5300   53.6011 C.3     1  ZINC000537799672    0.0600
     31 C31       -11.3822    0.0674   54.6118 C.3     1  ZINC000537799672   -0.1500
     32 H32        -9.1848   -1.9947   61.2059 H       1  ZINC000537799672    0.0500
     33 H33        -8.7852   -2.8481   59.6958 H       1  ZINC000537799672    0.0900
     34 H34        -7.9083   -1.3636   60.1380 H       1  ZINC000537799672    0.0400
     35 H35       -10.0778    2.8389   60.5509 H       1  ZINC000537799672    0.1300
     36 H36        -9.2098    4.6288   59.1004 H       1  ZINC000537799672    0.1400
     37 H37        -8.0987    1.7195   56.1807 H       1  ZINC000537799672    0.1400
     38 H38        -8.9631   -0.0684   57.6362 H       1  ZINC000537799672    0.1300
     39 H39       -11.3393    1.5917   61.9916 H       1  ZINC000537799672    0.0700
     40 H40       -12.9831    0.9331   61.8113 H       1  ZINC000537799672    0.0600
     41 H41       -11.6547   -0.1236   62.3471 H       1  ZINC000537799672    0.0700
     42 H42       -12.1938   -1.6744   60.4618 H       1  ZINC000537799672    0.4000
     43 H43       -15.1836   -2.0743   60.0556 H       1  ZINC000537799672    0.1300
     44 H44       -16.3248   -4.1713   59.4632 H       1  ZINC000537799672    0.1300
     45 H45       -15.5586   -5.4917   57.5344 H       1  ZINC000537799672    0.1300
     46 H46       -13.6486   -4.7244   56.1867 H       1  ZINC000537799672    0.1400
     47 H47       -11.5769   -1.7811   57.0990 H       1  ZINC000537799672    0.0800
     48 H48       -11.5450   -3.3488   56.2566 H       1  ZINC000537799672    0.0800
     49 H49       -10.6920   -1.9751   54.6710 H       1  ZINC000537799672    0.0600
     50 H50       -12.1436   -2.7960   52.8557 H       1  ZINC000537799672    0.0800
     51 H51       -12.9780   -1.2239   52.7888 H       1  ZINC000537799672    0.0800
     52 H52       -10.0164   -1.7160   52.2326 H       1  ZINC000537799672    0.0500
     53 H53       -11.2655   -1.3503   51.0181 H       1  ZINC000537799672    0.1000
     54 H54        -9.3845    0.0260   53.8041 H       1  ZINC000537799672    0.0500
     55 H55       -10.1924    1.6079   53.6867 H       1  ZINC000537799672    0.1000
     56 H56       -12.3162    0.6008   54.4348 H       1  ZINC000537799672    0.0800
     57 H57       -11.0309    0.2717   55.6231 H       1  ZINC000537799672    0.0800
@<TRIPOS>BOND
     1     1     2    1
     2     1    32    1
     3     1    33    1
     4     1    34    1
     5     2     3    1
     6     3     4    1
     7     3     5    1
     8     3    12    1
     9     5    11   ar
    10     5     6   ar
    11     6     7   ar
    12     6    35    1
    13     7     8   ar
    14     7    36    1
    15     8     9    1
    16     8    10   ar
    17    10    11   ar
    18    10    37    1
    19    11    38    1
    20    12    13    1
    21    12    14    1
    22    12    15    1
    23    14    39    1
    24    14    40    1
    25    14    41    1
    26    15    16   am
    27    15    42    1
    28    16    17    2
    29    16    18    1
    30    18    23   ar
    31    18    19   ar
    32    19    20   ar
    33    19    43    1
    34    20    21   ar
    35    20    44    1
    36    21    22   ar
    37    21    45    1
    38    22    23   ar
    39    22    46    1
    40    23    24    1
    41    24    25    1
    42    24    47    1
    43    24    48    1
    44    25    26    1
    45    26    31    1
    46    26    27    1
    47    26    49    1
    48    27    28    1
    49    27    50    1
    50    27    51    1
    51    28    29    1
    52    28    52    1
    53    28    53    1
    54    29    30    1
    55    30    31    1
    56    30    54    1
    57    30    55    1
    58    31    56    1
    59    31    57    1
@<TRIPOS>SUBSTRUCTURE
     1 ZINC000537799672        1 TEMP              0 ****  ****    0 ROOT


##########                                Name:    ZINC000523878927
##########                DOCK_Rotatable_Bonds:                   8
##########                         Heavy_Atoms:                  27
##########                    Molecular_Weight:             376.474
##########                DOCK_Rotatable_Bonds:                   8
##########                       Formal_Charge:          0.00999957
##########                     HBond_Acceptors:                   7
##########                        HBond_Donors:                   3
##########                         Heavy_Atoms:                  27
##########                          Grid_Score:          -30.952978
##########                     Grid_vdw_energy:          -30.308435
##########                      Grid_es_energy:           -0.644542
##########           Internal_energy_repulsive:           13.786555

@<TRIPOS>MOLECULE
ZINC000523878927
 56 58 1 0 0
SMALL
USER_CHARGES


@<TRIPOS>ATOM
      1 C1         -2.2533    5.7382   52.2356 C.3     1  ZINC000523878927   -0.1500
      2 C2         -3.1443    4.6424   52.8238 C.3     1  ZINC000523878927   -0.0900
      3 H3         -3.6090    5.0050   53.7406 H       1  ZINC000523878927    0.0700
      4 C4         -2.2958    3.4080   53.1358 C.3     1  ZINC000523878927   -0.1200
      5 C5         -1.6435    2.8990   51.8489 C.3     1  ZINC000523878927   -0.1200
      6 C6         -2.7307    2.5283   50.8381 C.3     1  ZINC000523878927   -0.1100
      7 C7         -3.5792    3.7626   50.5261 C.3     1  ZINC000523878927   -0.1000
      8 H8         -2.9445    4.5433   50.1070 H       1  ZINC000523878927    0.0800
      9 C9         -4.6664    3.3919   49.5155 C.3     1  ZINC000523878927    0.1400
     10 N10        -5.5222    2.3457   50.0806 N.am    1  ZINC000523878927   -0.7400
     11 C11        -6.6677    2.6780   50.7082 C.2     1  ZINC000523878927    0.7200
     12 O12        -6.9901    3.8462   50.8065 O.2     1  ZINC000523878927   -0.5800
     13 N13        -7.4557    1.7154   51.2267 N.am    1  ZINC000523878927   -0.6400
     14 C14        -7.1868    0.2666   51.1791 C.3     1  ZINC000523878927    0.1000
     15 C15        -7.9737   -0.3222   52.3765 C.3     1  ZINC000523878927   -0.1400
     16 C16        -9.2548    0.5531   52.3680 C.3     1  ZINC000523878927    0.1500
     17 H17        -9.9770    0.1726   51.6459 H       1  ZINC000523878927    0.1100
     18 N18        -9.8474    0.6173   53.7063 N.am    1  ZINC000523878927   -0.7300
     19 C19       -10.6049   -0.4021   54.1575 C.2     1  ZINC000523878927    0.7100
     20 O20       -10.7950   -1.3758   53.4545 O.2     1  ZINC000523878927   -0.5700
     21 N21       -11.1514   -0.3423   55.3881 N.am    1  ZINC000523878927   -0.6800
     22 C22       -11.9385   -1.4017   55.8569 C.ar    1  ZINC000523878927    0.1500
     23 C23       -11.4973   -2.1780   56.9201 C.ar    1  ZINC000523878927   -0.1200
     24 C24       -12.2751   -3.2220   57.3812 C.ar    1  ZINC000523878927   -0.1300
     25 C25       -13.4941   -3.4949   56.7837 C.ar    1  ZINC000523878927    0.0800
     26 F26       -14.2533   -4.5167   57.2360 F       1  ZINC000523878927   -0.1400
     27 C27       -13.9361   -2.7216   55.7236 C.ar    1  ZINC000523878927   -0.1300
     28 C28       -13.1636   -1.6734   55.2628 C.ar    1  ZINC000523878927   -0.0900
     29 C29        -8.7227    1.9366   51.9389 C.3     1  ZINC000523878927    0.1200
     30 C30        -4.2315    4.2717   51.8131 C.3     1  ZINC000523878927   -0.1100
     31 H31        -2.8578    6.6176   52.0133 H       1  ZINC000523878927    0.0500
     32 H32        -1.4789    6.0023   52.9556 H       1  ZINC000523878927    0.0500
     33 H33        -1.7887    5.3756   51.3187 H       1  ZINC000523878927    0.0600
     34 H34        -1.5213    3.6721   53.8558 H       1  ZINC000523878927    0.0600
     35 H35        -2.9306    2.6272   53.5549 H       1  ZINC000523878927    0.0600
     36 H36        -1.0089    3.6797   51.4298 H       1  ZINC000523878927    0.0700
     37 H37        -1.0391    2.0196   52.0712 H       1  ZINC000523878927    0.0600
     38 H38        -2.2660    2.1656   49.9212 H       1  ZINC000523878927    0.0600
     39 H39        -3.3655    1.7475   51.2572 H       1  ZINC000523878927    0.0600
     40 H40        -5.2688    4.2719   49.2905 H       1  ZINC000523878927    0.0700
     41 H41        -4.2017    3.0259   48.5998 H       1  ZINC000523878927    0.0700
     42 H42        -5.2643    1.4138   50.0031 H       1  ZINC000523878927    0.3900
     43 H43        -7.5495   -0.1559   50.2421 H       1  ZINC000523878927    0.0800
     44 H44        -6.1201    0.0748   51.2950 H       1  ZINC000523878927    0.0800
     45 H45        -8.2162   -1.3713   52.2066 H       1  ZINC000523878927    0.1000
     46 H46        -7.4207   -0.1965   53.3073 H       1  ZINC000523878927    0.0800
     47 H47        -9.6947    1.3935   54.2676 H       1  ZINC000523878927    0.4000
     48 H48       -10.9996    0.4344   55.9489 H       1  ZINC000523878927    0.4100
     49 H49       -10.5462   -1.9659   57.3859 H       1  ZINC000523878927    0.1400
     50 H50       -11.9323   -3.8261   58.2082 H       1  ZINC000523878927    0.1400
     51 H51       -14.8872   -2.9360   55.2588 H       1  ZINC000523878927    0.1400
     52 H52       -13.5089   -1.0702   54.4362 H       1  ZINC000523878927    0.1500
     53 H53        -8.5557    2.5586   52.8182 H       1  ZINC000523878927    0.0700
     54 H54        -9.4378    2.4182   51.2720 H       1  ZINC000523878927    0.0800
     55 H55        -4.8663    3.4909   52.2321 H       1  ZINC000523878927    0.0700
     56 H56        -4.8361    5.1510   51.5908 H       1  ZINC000523878927    0.0700
@<TRIPOS>BOND
     1     1     2    1
     2     1    31    1
     3     1    32    1
     4     1    33    1
     5     2     3    1
     6     2    30    1
     7     2     4    1
     8     4     5    1
     9     4    34    1
    10     4    35    1
    11     5     6    1
    12     5    36    1
    13     5    37    1
    14     6     7    1
    15     6    38    1
    16     6    39    1
    17     7     8    1
    18     7     9    1
    19     7    30    1
    20     9    10    1
    21     9    40    1
    22     9    41    1
    23    10    11   am
    24    10    42    1
    25    11    12    2
    26    11    13   am
    27    13    29    1
    28    13    14    1
    29    14    15    1
    30    14    43    1
    31    14    44    1
    32    15    16    1
    33    15    45    1
    34    15    46    1
    35    16    17    1
    36    16    18    1
    37    16    29    1
    38    18    19   am
    39    18    47    1
    40    19    20    2
    41    19    21   am
    42    21    22    1
    43    21    48    1
    44    22    28   ar
    45    22    23   ar
    46    23    24   ar
    47    23    49    1
    48    24    25   ar
    49    24    50    1
    50    25    26    1
    51    25    27   ar
    52    27    28   ar
    53    27    51    1
    54    28    52    1
    55    29    53    1
    56    29    54    1
    57    30    55    1
    58    30    56    1
@<TRIPOS>SUBSTRUCTURE
     1 ZINC000523878927        1 TEMP              0 ****  ****    0 ROOT


##########                                Name:    ZINC000867639366
##########                DOCK_Rotatable_Bonds:                   6
##########                         Heavy_Atoms:                  25
##########                    Molecular_Weight:             388.509
##########                DOCK_Rotatable_Bonds:                   6
##########                       Formal_Charge:          0.00999961
##########                     HBond_Acceptors:                   9
##########                        HBond_Donors:                   1
##########                         Heavy_Atoms:                  25
##########                          Grid_Score:          -30.923962
##########                     Grid_vdw_energy:          -29.949646
##########                      Grid_es_energy:           -0.974316
##########           Internal_energy_repulsive:           39.881870

@<TRIPOS>MOLECULE
ZINC000867639366
 49 51 1 0 0
SMALL
USER_CHARGES


@<TRIPOS>ATOM
      1 C1         -9.9394   -0.2050   52.3698 C.3     1  ZINC000867639366    0.0300
      2 O2         -9.7057    1.1992   52.2449 O.3     1  ZINC000867639366   -0.3800
      3 C3         -9.1129    1.7948   53.4007 C.3     1  ZINC000867639366    0.0800
      4 H4         -9.5332    1.3426   54.2991 H       1  ZINC000867639366    0.0800
      5 C5         -9.3987    3.2983   53.4041 C.3     1  ZINC000867639366   -0.1400
      6 C6         -8.8384    3.9286   52.1270 C.3     1  ZINC000867639366   -0.1200
      7 C7         -7.3206    3.7251   52.0853 C.3     1  ZINC000867639366    0.1500
      8 H8         -6.8557    4.2747   52.9037 H       1  ZINC000867639366    0.0800
      9 C9         -6.7717    4.2319   50.7501 C.3     1  ZINC000867639366   -0.1900
     10 N10        -7.0317    2.2916   52.2277 N.am    1  ZINC000867639366   -0.9800
     11 S11        -6.0849    1.5075   51.1181 S.o2    1  ZINC000867639366    2.6900
     12 O12        -5.8797    0.1948   51.6221 O.2     1  ZINC000867639366   -0.9500
     13 O13        -6.6577    1.7703   49.8446 O.2     1  ZINC000867639366   -0.9400
     14 C14        -4.5091    2.2958   51.1272 C.ar    1  ZINC000867639366   -0.6300
     15 C15        -3.9091    2.6274   52.3277 C.ar    1  ZINC000867639366   -0.0500
     16 C16        -2.6728    3.2459   52.3348 C.ar    1  ZINC000867639366   -0.0400
     17 C17        -2.0363    3.5323   51.1416 C.ar    1  ZINC000867639366   -0.6300
     18 S18        -0.4608    4.3211   51.1507 S.o2    1  ZINC000867639366    2.7000
     19 O19        -0.1817    4.6755   49.8033 O.2     1  ZINC000867639366   -0.9400
     20 O20        -0.4909    5.2651   52.2124 O.2     1  ZINC000867639366   -0.9500
     21 N21         0.6582    3.1762   51.5745 N.am    1  ZINC000867639366   -1.0800
     22 C22         0.8280    1.9774   50.7499 C.3     1  ZINC000867639366    0.0800
     23 C23         2.1617    1.8049   50.0202 C.3     1  ZINC000867639366   -0.1800
     24 C24         1.8318    0.9267   51.2289 C.3     1  ZINC000867639366   -0.1900
     25 C25        -2.6357    3.1994   49.9413 C.ar    1  ZINC000867639366   -0.0400
     26 C26        -3.8703    2.5775   49.9342 C.ar    1  ZINC000867639366   -0.0400
     27 C27        -7.5984    1.5664   53.3739 C.3     1  ZINC000867639366    0.1200
     28 H28        -8.9932   -0.7166   52.5458 H       1  ZINC000867639366    0.0400
     29 H29       -10.6127   -0.3883   53.2071 H       1  ZINC000867639366    0.0400
     30 H30       -10.3907   -0.5813   51.4517 H       1  ZINC000867639366    0.0900
     31 H31       -10.4753    3.4632   53.4483 H       1  ZINC000867639366    0.0700
     32 H32        -8.9255    3.7560   54.2728 H       1  ZINC000867639366    0.0700
     33 H33        -9.2931    3.4542   51.2573 H       1  ZINC000867639366    0.0800
     34 H34        -9.0628    4.9953   52.1190 H       1  ZINC000867639366    0.0800
     35 H35        -6.8724    5.3163   50.7039 H       1  ZINC000867639366    0.0700
     36 H36        -5.7196    3.9606   50.6634 H       1  ZINC000867639366    0.0600
     37 H37        -7.3320    3.7798   49.9317 H       1  ZINC000867639366    0.1000
     38 H38        -4.4064    2.4038   53.2599 H       1  ZINC000867639366    0.1600
     39 H39        -2.2044    3.5057   53.2727 H       1  ZINC000867639366    0.1500
     40 H40         1.2012    3.2994   52.3688 H       1  ZINC000867639366    0.4200
     41 H41        -0.0711    1.6218   50.2465 H       1  ZINC000867639366    0.1400
     42 H42         2.1403    1.3360   49.0365 H       1  ZINC000867639366    0.1100
     43 H43         2.9128    2.5835   50.1539 H       1  ZINC000867639366    0.1000
     44 H44         2.3658    1.1275   52.1576 H       1  ZINC000867639366    0.1000
     45 H45         1.5933   -0.1199   51.0404 H       1  ZINC000867639366    0.1000
     46 H46        -2.1382    3.4228   49.0091 H       1  ZINC000867639366    0.1500
     47 H47        -4.3385    2.3174   48.9964 H       1  ZINC000867639366    0.1500
     48 H48        -7.1560    1.9399   54.2975 H       1  ZINC000867639366    0.0900
     49 H49        -7.3907    0.5014   53.2714 H       1  ZINC000867639366    0.1000
@<TRIPOS>BOND
     1     1     2    1
     2     1    28    1
     3     1    29    1
     4     1    30    1
     5     2     3    1
     6     3     4    1
     7     3    27    1
     8     3     5    1
     9     5     6    1
    10     5    31    1
    11     5    32    1
    12     6     7    1
    13     6    33    1
    14     6    34    1
    15     7     8    1
    16     7     9    1
    17     7    10    1
    18     9    35    1
    19     9    36    1
    20     9    37    1
    21    10    11   am
    22    10    27    1
    23    11    12    2
    24    11    13    2
    25    11    14    1
    26    14    26   ar
    27    14    15   ar
    28    15    16   ar
    29    15    38    1
    30    16    17   ar
    31    16    39    1
    32    17    18    1
    33    17    25   ar
    34    18    19    2
    35    18    20    2
    36    18    21   am
    37    21    22    1
    38    21    40    1
    39    22    24    1
    40    22    23    1
    41    22    41    1
    42    23    24    1
    43    23    42    1
    44    23    43    1
    45    24    44    1
    46    24    45    1
    47    25    26   ar
    48    25    46    1
    49    26    47    1
    50    27    48    1
    51    27    49    1
@<TRIPOS>SUBSTRUCTURE
     1 ZINC000867639366        1 TEMP              0 ****  ****    0 ROOT


##########                                Name:    ZINC000469459940
##########                DOCK_Rotatable_Bonds:                   7
##########                         Heavy_Atoms:                  24
##########                    Molecular_Weight:             414.295
##########                DOCK_Rotatable_Bonds:                   7
##########                       Formal_Charge:          -0.0200002
##########                     HBond_Acceptors:                   6
##########                        HBond_Donors:                   1
##########                         Heavy_Atoms:                  24
##########                          Grid_Score:          -30.911785
##########                     Grid_vdw_energy:          -30.697941
##########                      Grid_es_energy:           -0.213844
##########           Internal_energy_repulsive:            5.784673

@<TRIPOS>MOLECULE
ZINC000469459940
 41 42 1 0 0
SMALL
USER_CHARGES


@<TRIPOS>ATOM
      1 C1         -1.9088    2.1934   50.4264 C.3     1  ZINC000469459940   -0.1600
      2 C2         -2.7477    3.2607   49.7209 C.3     1  ZINC000469459940   -0.1200
      3 C3         -4.1776    2.7477   49.5390 C.3     1  ZINC000469459940   -0.1200
      4 C4         -4.8826    2.7101   50.8963 C.3     1  ZINC000469459940   -0.6000
      5 S5         -6.6789    2.7396   50.6458 S.o2    1  ZINC000469459940    2.4900
      6 O6         -7.1211    4.0596   50.3611 O.2     1  ZINC000469459940   -0.9300
      7 O7         -7.0886    1.6407   49.8434 O.2     1  ZINC000469459940   -0.9300
      8 C8         -7.3506    2.3900   52.2369 C.ar    1  ZINC000469459940   -0.6400
      9 C9         -7.0211    3.1923   53.3149 C.ar    1  ZINC000469459940   -0.0300
     10 C10        -7.5432    2.9240   54.5634 C.ar    1  ZINC000469459940   -0.0800
     11 C11        -8.4058    1.8404   54.7375 C.ar    1  ZINC000469459940   -0.0900
     12 C12        -8.9694    1.5472   56.0722 C.2     1  ZINC000469459940    0.5600
     13 O13       -10.1202    1.1696   56.1764 O.2     1  ZINC000469459940   -0.5000
     14 N14        -8.2074    1.6987   57.1735 N.am    1  ZINC000469459940   -0.6700
     15 C15        -8.7408    1.4212   58.4365 C.ar    1  ZINC000469459940    0.1900
     16 C16        -9.2238    2.4539   59.2295 C.ar    1  ZINC000469459940   -0.1500
     17 C17        -9.7502    2.1784   60.4767 C.ar    1  ZINC000469459940   -0.0400
     18 C18        -9.7966    0.8751   60.9371 C.ar    1  ZINC000469459940   -0.1500
     19 Br19      -10.5181    0.5024   62.6450 Br      1  ZINC000469459940   -0.0200
     20 C20        -9.3155   -0.1583   60.1486 C.ar    1  ZINC000469459940    0.1500
     21 F21        -9.3618   -1.4306   60.6006 F       1  ZINC000469459940   -0.1200
     22 C22        -8.7932    0.1121   58.8969 C.ar    1  ZINC000469459940   -0.1500
     23 C23        -8.7344    1.0353   53.6456 C.ar    1  ZINC000469459940   -0.1100
     24 C24        -8.2094    1.3178   52.4015 C.ar    1  ZINC000469459940   -0.0300
     25 H25        -2.3437    1.9756   51.4020 H       1  ZINC000469459940    0.0600
     26 H26        -1.8951    1.2851   49.8239 H       1  ZINC000469459940    0.0600
     27 H27        -0.8901    2.5588   50.5560 H       1  ZINC000469459940    0.0600
     28 H28        -2.7615    4.1690   50.3234 H       1  ZINC000469459940    0.0700
     29 H29        -2.3130    3.4784   48.7454 H       1  ZINC000469459940    0.0700
     30 H30        -4.7195    3.4128   48.8665 H       1  ZINC000469459940    0.0800
     31 H31        -4.1523    1.7440   49.1147 H       1  ZINC000469459940    0.0800
     32 H32        -4.6044    1.7985   51.4251 H       1  ZINC000469459940    0.1400
     33 H33        -4.5837    3.5772   51.4852 H       1  ZINC000469459940    0.1400
     34 H34        -6.3537    4.0304   53.1788 H       1  ZINC000469459940    0.1500
     35 H35        -7.2847    3.5506   55.4041 H       1  ZINC000469459940    0.1500
     36 H36        -7.2892    2.0001   57.0903 H       1  ZINC000469459940    0.4200
     37 H37        -9.1876    3.4721   58.8715 H       1  ZINC000469459940    0.1500
     38 H38       -10.1258    2.9818   61.0930 H       1  ZINC000469459940    0.1500
     39 H39        -8.4183   -0.6928   58.2821 H       1  ZINC000469459940    0.1600
     40 H40        -9.4009    0.1952   53.7737 H       1  ZINC000469459940    0.1400
     41 H41        -8.4628    0.6956   51.5558 H       1  ZINC000469459940    0.1500
@<TRIPOS>BOND
     1     1     2    1
     2     1    25    1
     3     1    26    1
     4     1    27    1
     5     2     3    1
     6     2    28    1
     7     2    29    1
     8     3     4    1
     9     3    30    1
    10     3    31    1
    11     4     5    1
    12     4    32    1
    13     4    33    1
    14     5     6    2
    15     5     7    2
    16     5     8    1
    17     8    24   ar
    18     8     9   ar
    19     9    10   ar
    20     9    34    1
    21    10    11   ar
    22    10    35    1
    23    11    12    1
    24    11    23   ar
    25    12    13    2
    26    12    14   am
    27    14    15    1
    28    14    36    1
    29    15    22   ar
    30    15    16   ar
    31    16    17   ar
    32    16    37    1
    33    17    18   ar
    34    17    38    1
    35    18    19    1
    36    18    20   ar
    37    20    21    1
    38    20    22   ar
    39    22    39    1
    40    23    24   ar
    41    23    40    1
    42    24    41    1
@<TRIPOS>SUBSTRUCTURE
     1 ZINC000469459940        1 TEMP              0 ****  ****    0 ROOT


##########                                Name:    ZINC001411334959
##########                DOCK_Rotatable_Bonds:                   9
##########                         Heavy_Atoms:                  24
##########                    Molecular_Weight:              339.37
##########                DOCK_Rotatable_Bonds:                   9
##########                       Formal_Charge:           0.0199995
##########                     HBond_Acceptors:                   9
##########                        HBond_Donors:                   3
##########                         Heavy_Atoms:                  24
##########                          Grid_Score:          -30.896494
##########                     Grid_vdw_energy:          -30.061811
##########                      Grid_es_energy:           -0.834682
##########           Internal_energy_repulsive:            4.677517

@<TRIPOS>MOLECULE
ZINC001411334959
 46 48 1 0 0
SMALL
USER_CHARGES


@<TRIPOS>ATOM
      1 O1         -5.5632    3.2956   49.9102 O.2     1  ZINC001411334959   -0.5400
      2 C2         -4.9283    2.5480   50.6236 C.2     1  ZINC001411334959    0.5200
      3 C3         -3.4683    2.2994   50.3447 C.3     1  ZINC001411334959   -0.1400
      4 C4         -2.6170    3.1947   51.2472 C.3     1  ZINC001411334959   -0.0100
      5 C5         -1.1573    2.9067   51.0076 C.2     1  ZINC001411334959    0.0100
      6 N6         -0.4106    2.0268   51.6355 N.2     1  ZINC001411334959   -0.2800
      7 N7          0.7795    2.0742   51.1504 N.pl3   1  ZINC001411334959   -0.2500
      8 N8          0.8568    2.9564   50.2179 N.2     1  ZINC001411334959   -0.2800
      9 C9         -0.3223    3.5162   50.0683 C.2     1  ZINC001411334959   -0.0200
     10 N10        -5.5269    1.9439   51.6691 N.am    1  ZINC001411334959   -0.7200
     11 C11        -6.9462    2.1856   51.9402 C.3     1  ZINC001411334959    0.1200
     12 C12        -7.8916    1.4511   50.9751 C.3     1  ZINC001411334959   -0.1400
     13 C13        -8.7872    1.1678   52.1926 C.3     1  ZINC001411334959   -0.1200
     14 C14        -9.3912   -0.2379   52.1954 C.3     1  ZINC001411334959    0.1300
     15 N15       -10.0970   -0.4636   53.4591 N.am    1  ZINC001411334959   -0.7200
     16 C16       -11.0321   -1.4304   53.5454 C.2     1  ZINC001411334959    0.5100
     17 O17       -11.2882   -2.1144   52.5772 O.2     1  ZINC001411334959   -0.5100
     18 C18       -11.7594   -1.6615   54.8448 C.3     1  ZINC001411334959    0.0700
     19 F19       -11.4332   -0.6717   55.7783 F       1  ZINC001411334959   -0.1800
     20 C20       -13.2940   -1.7267   54.6153 C.3     1  ZINC001411334959   -0.1600
     21 C21       -13.7289   -2.6368   55.7916 C.3     1  ZINC001411334959    0.0500
     22 O22       -12.6725   -3.6000   55.9310 O.3     1  ZINC001411334959   -0.3700
     23 C23       -11.4518   -3.0671   55.4044 C.3     1  ZINC001411334959    0.0400
     24 C24        -7.5206    1.2958   53.0552 C.3     1  ZINC001411334959   -0.1400
     25 H25        -3.2331    1.2538   50.5442 H       1  ZINC001411334959    0.1000
     26 H26        -3.2539    2.5271   49.3005 H       1  ZINC001411334959    0.1000
     27 H27        -2.8231    4.2406   51.0198 H       1  ZINC001411334959    0.1000
     28 H28        -2.8603    2.9950   52.2907 H       1  ZINC001411334959    0.0900
     29 H29         1.5181    1.5201   51.4475 H       1  ZINC001411334959    0.4700
     30 H30        -0.5895    4.2933   49.3675 H       1  ZINC001411334959    0.2000
     31 H31        -5.0181    1.3490   52.2419 H       1  ZINC001411334959    0.4000
     32 H32        -7.1798    3.2433   52.0618 H       1  ZINC001411334959    0.1200
     33 H33        -8.3542    2.1043   50.2353 H       1  ZINC001411334959    0.0800
     34 H34        -7.4559    0.5539   50.5354 H       1  ZINC001411334959    0.0900
     35 H35        -9.5263    1.9464   52.3815 H       1  ZINC001411334959    0.1000
     36 H36       -10.0917   -0.3341   51.3658 H       1  ZINC001411334959    0.0800
     37 H37        -8.5959   -0.9753   52.0866 H       1  ZINC001411334959    0.0800
     38 H38        -9.8913    0.0826   54.2339 H       1  ZINC001411334959    0.4100
     39 H39       -13.7457   -0.7380   54.6959 H       1  ZINC001411334959    0.1000
     40 H40       -13.5284   -2.1867   53.6553 H       1  ZINC001411334959    0.1100
     41 H41       -13.8301   -2.0514   56.7055 H       1  ZINC001411334959    0.0700
     42 H42       -14.6683   -3.1369   55.5558 H       1  ZINC001411334959    0.1000
     43 H43       -11.0817   -3.7100   54.6057 H       1  ZINC001411334959    0.0900
     44 H44       -10.7074   -2.9946   56.1973 H       1  ZINC001411334959    0.0900
     45 H45        -6.9834    0.3562   53.1843 H       1  ZINC001411334959    0.0900
     46 H46        -7.6837    1.8237   53.9947 H       1  ZINC001411334959    0.0800
@<TRIPOS>BOND
     1     1     2    2
     2     2     3    1
     3     2    10   am
     4     3     4    1
     5     3    25    1
     6     3    26    1
     7     4     5    1
     8     4    27    1
     9     4    28    1
    10     5     9    1
    11     5     6    2
    12     6     7    1
    13     7     8    1
    14     7    29    1
    15     8     9    2
    16     9    30    1
    17    10    11    1
    18    10    31    1
    19    11    24    1
    20    11    12    1
    21    11    32    1
    22    12    13    1
    23    12    33    1
    24    12    34    1
    25    13    14    1
    26    13    24    1
    27    13    35    1
    28    14    15    1
    29    14    36    1
    30    14    37    1
    31    15    16   am
    32    15    38    1
    33    16    17    2
    34    16    18    1
    35    18    23    1
    36    18    19    1
    37    18    20    1
    38    20    21    1
    39    20    39    1
    40    20    40    1
    41    21    22    1
    42    21    41    1
    43    21    42    1
    44    22    23    1
    45    23    43    1
    46    23    44    1
    47    24    45    1
    48    24    46    1
@<TRIPOS>SUBSTRUCTURE
     1 ZINC001411334959        1 TEMP              0 ****  ****    0 ROOT


##########                                Name:    ZINC000929592477
##########                DOCK_Rotatable_Bonds:                   7
##########                         Heavy_Atoms:                  28
##########                    Molecular_Weight:             399.517
##########                DOCK_Rotatable_Bonds:                   7
##########                       Formal_Charge:         -8.9407e-08
##########                     HBond_Acceptors:                   8
##########                        HBond_Donors:                   3
##########                         Heavy_Atoms:                  28
##########                          Grid_Score:          -30.873980
##########                     Grid_vdw_energy:          -31.031515
##########                      Grid_es_energy:            0.157536
##########           Internal_energy_repulsive:            7.463944

@<TRIPOS>MOLECULE
ZINC000929592477
 53 56 1 0 0
SMALL
USER_CHARGES


@<TRIPOS>ATOM
      1 O1         -9.8138    0.3958   52.3764 O.2     1  ZINC000929592477   -0.5700
      2 C2        -10.1304    1.3693   53.0327 C.2     1  ZINC000929592477    0.7100
      3 N3         -9.3689    2.4808   52.9996 N.am    1  ZINC000929592477   -0.6800
      4 C4         -8.2088    2.5127   52.2131 C.ar    1  ZINC000929592477    0.1600
      5 C5         -7.0921    1.7804   52.5934 C.ar    1  ZINC000929592477   -0.1300
      6 C6         -5.9493    1.8118   51.8195 C.ar    1  ZINC000929592477   -0.0800
      7 C7         -5.9169    2.5762   50.6596 C.ar    1  ZINC000929592477   -0.1000
      8 S8         -4.4590    2.6162   49.6711 S.3     1  ZINC000929592477   -0.1100
      9 C9         -3.1288    2.5565   50.9030 C.3     1  ZINC000929592477   -0.0800
     10 C10        -1.7448    2.5761   50.2079 C.3     1  ZINC000929592477   -0.1200
     11 C11        -0.8129    3.1240   51.3171 C.3     1  ZINC000929592477   -0.1200
     12 C12        -1.6634    4.1949   52.0309 C.3     1  ZINC000929592477   -0.1200
     13 C13        -3.1360    3.8340   51.7678 C.3     1  ZINC000929592477   -0.1000
     14 C14        -7.0347    3.3084   50.2792 C.ar    1  ZINC000929592477   -0.1200
     15 C15        -8.1788    3.2722   51.0511 C.ar    1  ZINC000929592477   -0.1000
     16 N16       -11.2457    1.3387   53.7888 N.am    1  ZINC000929592477   -0.7300
     17 C17       -12.0734    0.1304   53.8247 C.3     1  ZINC000929592477    0.1500
     18 H18       -12.3253   -0.1929   52.8148 H       1  ZINC000929592477    0.1200
     19 C19       -13.3582    0.3699   54.6609 C.3     1  ZINC000929592477   -0.1400
     20 C20       -12.8392    0.1377   56.1019 C.3     1  ZINC000929592477    0.1100
     21 N21       -11.8692   -0.9657   55.9804 N.pl3   1  ZINC000929592477   -0.6000
     22 C22       -11.5002   -1.8274   56.9931 C.2     1  ZINC000929592477    0.4600
     23 C23       -11.1997   -1.3353   58.2524 C.2     1  ZINC000929592477   -0.4000
     24 C24       -10.8293   -2.2442   59.2531 C.2     1  ZINC000929592477    0.5300
     25 O25       -10.5564   -1.8544   60.3774 O.2     1  ZINC000929592477   -0.5500
     26 N26       -10.7805   -3.5583   58.9503 N.am    1  ZINC000929592477   -0.6400
     27 C27       -11.0835   -3.9814   57.7068 C.2     1  ZINC000929592477    0.4100
     28 N28       -11.4354   -3.1488   56.7661 N.2     1  ZINC000929592477   -0.5700
     29 C29       -11.3585   -0.9983   54.5971 C.3     1  ZINC000929592477    0.1100
     30 H30        -9.6236    3.2589   53.5200 H       1  ZINC000929592477    0.4100
     31 H31        -7.1173    1.1864   53.4949 H       1  ZINC000929592477    0.1300
     32 H32        -5.0806    1.2428   52.1157 H       1  ZINC000929592477    0.1300
     33 H33        -3.2304    1.6708   51.5302 H       1  ZINC000929592477    0.1000
     34 H34        -1.4458    1.5698   49.9142 H       1  ZINC000929592477    0.0700
     35 H35        -1.7545    3.2441   49.3466 H       1  ZINC000929592477    0.0800
     36 H36        -0.5382    2.3298   52.0113 H       1  ZINC000929592477    0.0700
     37 H37         0.0779    3.5740   50.8789 H       1  ZINC000929592477    0.0700
     38 H38        -1.4610    4.1796   53.1019 H       1  ZINC000929592477    0.0700
     39 H39        -1.4419    5.1809   51.6227 H       1  ZINC000929592477    0.0700
     40 H40        -3.6290    4.6449   51.2317 H       1  ZINC000929592477    0.0700
     41 H41        -3.6480    3.6436   52.7109 H       1  ZINC000929592477    0.0800
     42 H42        -7.0100    3.9026   49.3777 H       1  ZINC000929592477    0.1300
     43 H43        -9.0478    3.8411   50.7553 H       1  ZINC000929592477    0.1400
     44 H44       -11.5003    2.1167   54.3092 H       1  ZINC000929592477    0.4000
     45 H45       -13.7211    1.3901   54.5360 H       1  ZINC000929592477    0.0900
     46 H46       -14.1323   -0.3528   54.4032 H       1  ZINC000929592477    0.0900
     47 H47       -12.3478    1.0352   56.4773 H       1  ZINC000929592477    0.0700
     48 H48       -13.6600   -0.1495   56.7591 H       1  ZINC000929592477    0.0800
     49 H49       -11.2493   -0.2763   58.4583 H       1  ZINC000929592477    0.1500
     50 H50       -10.5258   -4.2014   59.6304 H       1  ZINC000929592477    0.4200
     51 H51       -11.0380   -5.0373   57.4847 H       1  ZINC000929592477    0.2100
     52 H52       -11.5834   -1.9626   54.1416 H       1  ZINC000929592477    0.0900
     53 H53       -10.2822   -0.8269   54.5951 H       1  ZINC000929592477    0.0800
@<TRIPOS>BOND
     1     1     2    2
     2     2     3   am
     3     2    16   am
     4     3     4    1
     5     3    30    1
     6     4    15   ar
     7     4     5   ar
     8     5     6   ar
     9     5    31    1
    10     6     7   ar
    11     6    32    1
    12     7     8    1
    13     7    14   ar
    14     8     9    1
    15     9    13    1
    16     9    10    1
    17     9    33    1
    18    10    11    1
    19    10    34    1
    20    10    35    1
    21    11    12    1
    22    11    36    1
    23    11    37    1
    24    12    13    1
    25    12    38    1
    26    12    39    1
    27    13    40    1
    28    13    41    1
    29    14    15   ar
    30    14    42    1
    31    15    43    1
    32    16    17    1
    33    16    44    1
    34    17    18    1
    35    17    29    1
    36    17    19    1
    37    19    20    1
    38    19    45    1
    39    19    46    1
    40    20    21    1
    41    20    47    1
    42    20    48    1
    43    21    22    1
    44    21    29    1
    45    22    28    1
    46    22    23    2
    47    23    24    1
    48    23    49    1
    49    24    25    2
    50    24    26   am
    51    26    27    1
    52    26    50    1
    53    27    28    2
    54    27    51    1
    55    29    52    1
    56    29    53    1
@<TRIPOS>SUBSTRUCTURE
     1 ZINC000929592477        1 TEMP              0 ****  ****    0 ROOT


##########                                Name:    ZINC000011157684
##########                DOCK_Rotatable_Bonds:                   7
##########                         Heavy_Atoms:                  25
##########                    Molecular_Weight:             374.866
##########                DOCK_Rotatable_Bonds:                   7
##########                       Formal_Charge:           0.0400001
##########                     HBond_Acceptors:                   6
##########                        HBond_Donors:                   2
##########                         Heavy_Atoms:                  25
##########                          Grid_Score:          -30.870417
##########                     Grid_vdw_energy:          -29.370592
##########                      Grid_es_energy:           -1.499824
##########           Internal_energy_repulsive:           11.036597

@<TRIPOS>MOLECULE
ZINC000011157684
 41 43 1 0 0
SMALL
USER_CHARGES


@<TRIPOS>ATOM
      1 O1         -7.5105    1.4625   50.2838 O.2     1  ZINC000011157684   -0.5200
      2 C2         -6.8931    1.0716   51.2518 C.2     1  ZINC000011157684    0.5100
      3 C3         -7.4547   -0.0347   52.1072 C.3     1  ZINC000011157684    0.1000
      4 N4         -8.9183    0.0000   52.0516 N.pl3   1  ZINC000011157684   -0.7300
      5 C5         -9.6624    0.0484   53.2353 C.ar    1  ZINC000011157684    0.2200
      6 C6         -9.3718    1.0027   54.2005 C.ar    1  ZINC000011157684   -0.1600
      7 C7        -10.1082    1.0492   55.3687 C.ar    1  ZINC000011157684   -0.0900
      8 C8        -11.1351    0.1447   55.5777 C.ar    1  ZINC000011157684    0.0500
      9 F9        -11.8532    0.1920   56.7211 F       1  ZINC000011157684   -0.1400
     10 C10       -11.4277   -0.8083   54.6165 C.ar    1  ZINC000011157684   -0.0900
     11 C11       -10.6975   -0.8554   53.4443 C.ar    1  ZINC000011157684   -0.0900
     12 Cl12      -11.0644   -2.0501   52.2394 Cl      1  ZINC000011157684   -0.0500
     13 N13        -5.7022    1.6226   51.5592 N.am    1  ZINC000011157684   -0.7200
     14 C14        -5.1562    2.6980   50.7276 C.3     1  ZINC000011157684    0.2600
     15 H15        -5.3881    2.5013   49.6808 H       1  ZINC000011157684    0.1200
     16 C16        -3.6613    2.7625   50.9074 C.2     1  ZINC000011157684   -0.1900
     17 C17        -3.0104    2.4884   52.0389 C.2     1  ZINC000011157684   -0.1200
     18 C18        -1.6340    2.6160   51.9654 C.2     1  ZINC000011157684   -0.1300
     19 C19        -1.1672    2.9937   50.7743 C.2     1  ZINC000011157684   -0.2100
     20 S20        -2.5077    3.2035   49.6551 S.3     1  ZINC000011157684    0.1100
     21 C21        -5.7689    4.0118   51.1394 C.ar    1  ZINC000011157684   -0.0900
     22 C22        -5.1636    4.7808   52.1157 C.ar    1  ZINC000011157684   -0.1100
     23 C23        -5.7257    5.9859   52.4934 C.ar    1  ZINC000011157684   -0.1100
     24 C24        -6.8926    6.4223   51.8945 C.ar    1  ZINC000011157684   -0.1100
     25 C25        -7.4973    5.6538   50.9176 C.ar    1  ZINC000011157684   -0.1100
     26 C26        -6.9330    4.4506   50.5368 C.ar    1  ZINC000011157684   -0.1000
     27 H27        -7.0998   -0.9965   51.7367 H       1  ZINC000011157684    0.1000
     28 H28        -7.1271    0.1009   53.1379 H       1  ZINC000011157684    0.1000
     29 H29        -9.3714   -0.0105   51.1940 H       1  ZINC000011157684    0.4200
     30 H30        -8.5704    1.7084   54.0385 H       1  ZINC000011157684    0.1400
     31 H31        -9.8822    1.7917   56.1196 H       1  ZINC000011157684    0.1400
     32 H32       -12.2296   -1.5129   54.7814 H       1  ZINC000011157684    0.1500
     33 H33        -5.2067    1.3072   52.3311 H       1  ZINC000011157684    0.4000
     34 H34        -3.5187    2.1900   52.9438 H       1  ZINC000011157684    0.1400
     35 H35        -0.9871    2.4245   52.8089 H       1  ZINC000011157684    0.1400
     36 H36        -0.1253    3.1440   50.5331 H       1  ZINC000011157684    0.1700
     37 H37        -4.2520    4.4399   52.5836 H       1  ZINC000011157684    0.1200
     38 H38        -5.2531    6.5864   53.2568 H       1  ZINC000011157684    0.1300
     39 H39        -7.3320    7.3636   52.1902 H       1  ZINC000011157684    0.1300
     40 H40        -8.4092    5.9946   50.4499 H       1  ZINC000011157684    0.1300
     41 H41        -7.4055    3.8503   49.7735 H       1  ZINC000011157684    0.1300
@<TRIPOS>BOND
     1     1     2    2
     2     2     3    1
     3     2    13   am
     4     3     4    1
     5     3    27    1
     6     3    28    1
     7     4     5    1
     8     4    29    1
     9     5    11   ar
    10     5     6   ar
    11     6     7   ar
    12     6    30    1
    13     7     8   ar
    14     7    31    1
    15     8     9    1
    16     8    10   ar
    17    10    11   ar
    18    10    32    1
    19    11    12    1
    20    13    14    1
    21    13    33    1
    22    14    15    1
    23    14    16    1
    24    14    21    1
    25    16    20    1
    26    16    17    2
    27    17    18    1
    28    17    34    1
    29    18    19    2
    30    18    35    1
    31    19    20    1
    32    19    36    1
    33    21    26   ar
    34    21    22   ar
    35    22    23   ar
    36    22    37    1
    37    23    24   ar
    38    23    38    1
    39    24    25   ar
    40    24    39    1
    41    25    26   ar
    42    25    40    1
    43    26    41    1
@<TRIPOS>SUBSTRUCTURE
     1 ZINC000011157684        1 TEMP              0 ****  ****    0 ROOT


##########                                Name:    ZINC001570985666
##########                DOCK_Rotatable_Bonds:                   7
##########                         Heavy_Atoms:                  26
##########                    Molecular_Weight:             357.415
##########                DOCK_Rotatable_Bonds:                   7
##########                       Formal_Charge:          -0.0100001
##########                     HBond_Acceptors:                   9
##########                        HBond_Donors:                   3
##########                         Heavy_Atoms:                  26
##########                          Grid_Score:          -30.839382
##########                     Grid_vdw_energy:          -27.314598
##########                      Grid_es_energy:           -3.524785
##########           Internal_energy_repulsive:           12.371996

@<TRIPOS>MOLECULE
ZINC001570985666
 49 52 1 0 0
SMALL
USER_CHARGES


@<TRIPOS>ATOM
      1 C1        -11.7792   -3.4329   57.7449 C.3     1  ZINC001570985666   -0.1600
      2 C2        -11.2702   -1.9987   57.5865 C.3     1  ZINC001570985666    0.1300
      3 H3        -10.1805   -1.9923   57.5659 H       1  ZINC001570985666    0.0800
      4 C4        -11.7783   -1.1294   58.7561 C.3     1  ZINC001570985666    0.1400
      5 H5        -12.6769   -1.5619   59.1961 H       1  ZINC001570985666    0.1100
      6 N6        -10.7345   -0.9646   59.7708 N.am    1  ZINC001570985666   -0.7200
      7 C7        -11.0560   -0.5225   61.0027 C.2     1  ZINC001570985666    0.6000
      8 O8        -12.2125   -0.2591   61.2716 O.2     1  ZINC001570985666   -0.5300
      9 C9        -10.0067   -0.3585   62.0236 C.2     1  ZINC001570985666   -0.2300
     10 C10        -8.6979   -0.7800   61.9297 C.2     1  ZINC001570985666    0.0700
     11 N11        -8.0625   -0.4410   63.0691 N.pl3   1  ZINC001570985666   -0.5200
     12 C12        -8.9436    0.1978   63.9063 C.2     1  ZINC001570985666    0.0600
     13 C13        -8.6294    0.7249   65.2533 C.2     1  ZINC001570985666    0.2500
     14 N14        -9.4622    1.3351   66.0752 N.2     1  ZINC001570985666   -0.3100
     15 N15        -8.8089    1.6395   67.1436 N.pl3   1  ZINC001570985666   -0.2200
     16 N16        -7.5902    1.2424   67.0260 N.2     1  ZINC001570985666   -0.0400
     17 N17        -7.4439    0.6704   65.8793 N.2     1  ZINC001570985666   -0.2600
     18 C18       -10.1495    0.2691   63.2882 C.2     1  ZINC001570985666   -0.0600
     19 C19       -12.1000    0.2240   58.0690 C.3     1  ZINC001570985666   -0.1500
     20 C20       -12.6294   -0.2450   56.6908 C.3     1  ZINC001570985666    0.1000
     21 N21       -11.7972   -1.4155   56.3441 N.am    1  ZINC001570985666   -0.6200
     22 C22       -11.5633   -1.8713   55.0975 C.2     1  ZINC001570985666    0.5300
     23 O23       -10.8616   -2.8462   54.9301 O.2     1  ZINC001570985666   -0.5300
     24 C24       -12.1739   -1.1697   53.9117 C.3     1  ZINC001570985666   -0.1300
     25 C25       -11.0711   -0.4880   53.0992 C.3     1  ZINC001570985666   -0.1000
     26 C26       -11.5403    0.7798   52.3661 C.3     1  ZINC001570985666   -0.1300
     27 C27       -10.1913    1.4082   52.7538 C.3     1  ZINC001570985666   -0.1400
     28 C28       -10.1642    0.4277   53.9381 C.3     1  ZINC001570985666   -0.1400
     29 H29       -11.4214   -4.0393   56.9128 H       1  ZINC001570985666    0.0700
     30 H30       -11.4096   -3.8481   58.6824 H       1  ZINC001570985666    0.0700
     31 H31       -12.8691   -3.4329   57.7521 H       1  ZINC001570985666    0.0600
     32 H32        -9.8119   -1.1736   59.5560 H       1  ZINC001570985666    0.4000
     33 H33        -8.2573   -1.2940   61.0883 H       1  ZINC001570985666    0.1800
     34 H34        -7.1300   -0.6204   63.2665 H       1  ZINC001570985666    0.4300
     35 H35        -9.1779    2.0965   67.9155 H       1  ZINC001570985666    0.4800
     36 H36       -11.0497    0.7137   63.6864 H       1  ZINC001570985666    0.1600
     37 H37       -12.8684    0.7680   58.6183 H       1  ZINC001570985666    0.0900
     38 H38       -11.2001    0.8288   57.9567 H       1  ZINC001570985666    0.0800
     39 H39       -13.6782   -0.5324   56.7652 H       1  ZINC001570985666    0.0800
     40 H40       -12.5027    0.5424   55.9479 H       1  ZINC001570985666    0.0800
     41 H41       -12.6899   -1.8970   53.2852 H       1  ZINC001570985666    0.0900
     42 H42       -12.8848   -0.4202   54.2596 H       1  ZINC001570985666    0.0900
     43 H43       -10.5220   -1.1833   52.4641 H       1  ZINC001570985666    0.1000
     44 H44       -11.6653    0.6422   51.2920 H       1  ZINC001570985666    0.0700
     45 H45       -12.3977    1.2630   52.8346 H       1  ZINC001570985666    0.0800
     46 H46        -9.4017    1.2324   52.0232 H       1  ZINC001570985666    0.0800
     47 H47       -10.2667    2.4534   53.0538 H       1  ZINC001570985666    0.0700
     48 H48       -10.6454    0.8146   54.8364 H       1  ZINC001570985666    0.0800
     49 H49        -9.1783    0.0058   54.1332 H       1  ZINC001570985666    0.0700
@<TRIPOS>BOND
     1     1     2    1
     2     1    29    1
     3     1    30    1
     4     1    31    1
     5     2     3    1
     6     2    21    1
     7     2     4    1
     8     4     5    1
     9     4     6    1
    10     4    19    1
    11     6     7   am
    12     6    32    1
    13     7     8    2
    14     7     9    1
    15     9    18    1
    16     9    10    2
    17    10    11    1
    18    10    33    1
    19    11    12    1
    20    11    34    1
    21    12    13    1
    22    12    18    2
    23    13    17    1
    24    13    14    2
    25    14    15    1
    26    15    16    1
    27    15    35    1
    28    16    17    2
    29    18    36    1
    30    19    20    1
    31    19    37    1
    32    19    38    1
    33    20    21    1
    34    20    39    1
    35    20    40    1
    36    21    22   am
    37    22    23    2
    38    22    24    1
    39    24    25    1
    40    24    41    1
    41    24    42    1
    42    25    28    1
    43    25    26    1
    44    25    43    1
    45    26    27    1
    46    26    44    1
    47    26    45    1
    48    27    28    1
    49    27    46    1
    50    27    47    1
    51    28    48    1
    52    28    49    1
@<TRIPOS>SUBSTRUCTURE
     1 ZINC001570985666        1 TEMP              0 ****  ****    0 ROOT


##########                                Name:    ZINC000342525234
##########                DOCK_Rotatable_Bonds:                   6
##########                         Heavy_Atoms:                  25
##########                    Molecular_Weight:             333.349
##########                DOCK_Rotatable_Bonds:                   6
##########                       Formal_Charge:           0.0500003
##########                     HBond_Acceptors:                   7
##########                        HBond_Donors:                   2
##########                         Heavy_Atoms:                  25
##########                          Grid_Score:          -30.835331
##########                     Grid_vdw_energy:          -27.713568
##########                      Grid_es_energy:           -3.121764
##########           Internal_energy_repulsive:            5.164975

@<TRIPOS>MOLECULE
ZINC000342525234
 40 43 1 0 0
SMALL
USER_CHARGES


@<TRIPOS>ATOM
      1 O1        -10.6735   -2.5717   53.4775 O.2     1  <0>        -0.5100
      2 C2        -11.1162   -1.4672   53.7227 C.2     1  <0>         0.6000
      3 N3        -12.2156   -1.3373   54.4914 N.am    1  <0>        -0.7100
      4 C4        -12.8803   -2.5282   55.0263 C.3     1  <0>         0.1200
      5 C5        -13.3832   -2.2391   56.4421 C.3     1  <0>        -0.0900
      6 C6        -12.2480   -1.7098   57.2800 C.ar    1  <0>        -0.0400
      7 C7        -11.3214   -2.5772   57.7586 C.ar    1  <0>        -0.1000
      8 C8        -10.2536   -2.0930   58.5446 C.ar    1  <0>         0.1100
      9 N9         -9.2172   -2.6480   59.1461 N.2     1  <0>        -0.3100
     10 N10        -8.4797   -1.6507   59.7941 N.pl3   1  <0>        -0.4200
     11 C11        -9.0558   -0.4567   59.5997 C.2     1  <0>         0.0900
     12 C12       -10.1815   -0.6497   58.8207 C.ar    1  <0>        -0.2100
     13 C13       -11.1807    0.1940   58.2902 C.ar    1  <0>        -0.0400
     14 C14       -12.1757   -0.3390   57.5378 C.ar    1  <0>        -0.1500
     15 C15       -10.4432   -0.2613   53.1811 C.2     1  <0>        -0.0200
     16 N16       -10.9188    0.9597   53.1562 N.2     1  <0>        -0.3200
     17 O17       -10.1397    1.7339   52.6515 O.3     1  <0>         0.1400
     18 C18        -9.0092    1.1195   52.2609 C.2     1  <0>         0.0100
     19 C19        -7.8396    1.7469   51.6085 C.ar    1  <0>         0.0200
     20 C20        -7.9144    3.0460   51.0930 C.ar    1  <0>        -0.1400
     21 C21        -6.7989    3.5925   50.4927 C.ar    1  <0>         0.1100
     22 N22        -5.6748    2.9081   50.4012 N.ar    1  <0>        -0.4800
     23 C23        -5.5615    1.6815   50.8736 C.ar    1  <0>         0.1100
     24 C24        -6.6255    1.0602   51.4943 C.ar    1  <0>        -0.1500
     25 C25        -9.1529   -0.1986   52.5921 C.2     1  <0>        -0.1500
     26 H26       -12.5669   -0.4553   54.6903 H       1  <0>         0.4100
     27 H27       -13.7237   -2.7913   54.3878 H       1  <0>         0.0800
     28 H28       -12.1733   -3.3572   55.0541 H       1  <0>         0.0800
     29 H29       -14.1804   -1.4970   56.4000 H       1  <0>         0.0900
     30 H30       -13.7653   -3.1581   56.8867 H       1  <0>         0.0800
     31 H31       -11.4004   -3.6318   57.5399 H       1  <0>         0.1300
     32 H32        -7.6711   -1.8014   60.3082 H       1  <0>         0.4500
     33 H33        -8.7034    0.4891   59.9839 H       1  <0>         0.1900
     34 H34       -11.1508    1.2572   58.4780 H       1  <0>         0.1300
     35 H35       -12.9369    0.3127   57.1347 H       1  <0>         0.1200
     36 H36        -8.8316    3.6118   51.1638 H       1  <0>         0.1400
     37 H37        -6.8467    4.5943   50.0919 H       1  <0>         0.1700
     38 H38        -4.6217    1.1582   50.7766 H       1  <0>         0.1700
     39 H39        -6.5254    0.0558   51.8787 H       1  <0>         0.1500
     40 H40        -8.4518   -1.0051   52.4363 H       1  <0>         0.1900
@<TRIPOS>BOND
     1     1     2    2
     2     2     3   am
     3     2    15    1
     4     3     4    1
     5     3    26    1
     6     4     5    1
     7     4    27    1
     8     4    28    1
     9     5     6    1
    10     5    29    1
    11     5    30    1
    12     6    14   ar
    13     6     7   ar
    14     7     8   ar
    15     7    31    1
    16     8    12   ar
    17     8     9    2
    18     9    10    1
    19    10    11    1
    20    10    32    1
    21    11    12    2
    22    11    33    1
    23    12    13   ar
    24    13    14   ar
    25    13    34    1
    26    14    35    1
    27    15    25    1
    28    15    16    2
    29    16    17    1
    30    17    18    1
    31    18    19    1
    32    18    25    2
    33    19    24   ar
    34    19    20   ar
    35    20    21   ar
    36    20    36    1
    37    21    22   ar
    38    21    37    1
    39    22    23   ar
    40    23    24   ar
    41    23    38    1
    42    24    39    1
    43    25    40    1
@<TRIPOS>SUBSTRUCTURE
     1 <0>         1 TEMP              0 ****  ****    0 ROOT


##########                                Name:    ZINC000182378855
##########                DOCK_Rotatable_Bonds:                   8
##########                         Heavy_Atoms:                  27
##########                    Molecular_Weight:              394.83
##########                DOCK_Rotatable_Bonds:                   8
##########                       Formal_Charge:          -0.0200001
##########                     HBond_Acceptors:                   8
##########                        HBond_Donors:                   1
##########                         Heavy_Atoms:                  27
##########                          Grid_Score:          -30.835175
##########                     Grid_vdw_energy:          -31.373720
##########                      Grid_es_energy:            0.538547
##########           Internal_energy_repulsive:           13.306915

@<TRIPOS>MOLECULE
ZINC000182378855
 47 49 1 0 0
SMALL
USER_CHARGES


@<TRIPOS>ATOM
      1 C1         -4.5209    3.3333   50.1004 C.3     1  ZINC000182378855    0.0300
      2 O2         -5.8973    3.4260   50.4733 O.3     1  ZINC000182378855   -0.3900
      3 C3         -6.5874    2.1747   50.4646 C.3     1  ZINC000182378855    0.0600
      4 C4         -5.9215    1.2181   51.4557 C.3     1  ZINC000182378855    0.0700
      5 O5         -6.7936    0.1156   51.7130 O.3     1  ZINC000182378855   -0.2900
      6 C6         -7.7983    0.3193   52.6019 C.ar    1  ZINC000182378855    0.3300
      7 C7         -8.9163   -0.5036   52.5743 C.ar    1  ZINC000182378855   -0.1300
      8 C8         -9.9418   -0.2814   53.4953 C.ar    1  ZINC000182378855   -0.0600
      9 C9        -11.1537   -1.1338   53.5046 C.2     1  ZINC000182378855    0.5600
     10 O10       -11.3524   -1.9172   52.5973 O.2     1  ZINC000182378855   -0.5200
     11 N11       -12.0355   -1.0402   54.5194 N.am    1  ZINC000182378855   -0.7100
     12 C12       -13.2329   -1.8843   54.5296 C.3     1  ZINC000182378855    0.1200
     13 H13       -13.0528   -2.8076   53.9791 H       1  ZINC000182378855    0.1100
     14 C14       -14.4370   -1.1231   53.9310 C.3     1  ZINC000182378855   -0.1700
     15 C15       -15.4555   -1.0604   55.0907 C.3     1  ZINC000182378855    0.0400
     16 O16       -14.6591   -1.1885   56.2887 O.3     1  ZINC000182378855   -0.3600
     17 C17       -13.6665   -2.1912   55.9802 C.3     1  ZINC000182378855    0.1100
     18 H18       -14.1021   -3.1884   56.0430 H       1  ZINC000182378855    0.1000
     19 C19       -12.4910   -2.0711   56.9156 C.ar    1  ZINC000182378855   -0.0500
     20 C20       -11.7362   -3.1874   57.2231 C.ar    1  ZINC000182378855   -0.1100
     21 C21       -10.6540   -3.0780   58.0766 C.ar    1  ZINC000182378855   -0.0800
     22 C22       -10.3325   -1.8534   58.6325 C.ar    1  ZINC000182378855   -0.0700
     23 Cl23       -8.9777   -1.7170   59.7094 Cl      1  ZINC000182378855   -0.0400
     24 C24       -11.0924   -0.7349   58.3290 C.ar    1  ZINC000182378855    0.1200
     25 F25       -10.7796    0.4625   58.8709 F       1  ZINC000182378855   -0.1200
     26 C26       -12.1719   -0.8455   57.4699 C.ar    1  ZINC000182378855   -0.1300
     27 C27        -9.7942    0.7676   54.4095 C.ar    1  ZINC000182378855   -0.1900
     28 C28        -8.6501    1.5385   54.3686 C.ar    1  ZINC000182378855    0.1400
     29 N29        -7.6992    1.2957   53.4876 N.ar    1  ZINC000182378855   -0.5200
     30 H30        -4.4444    2.9308   49.0904 H       1  ZINC000182378855    0.0400
     31 H31        -4.0685    4.3245   50.1318 H       1  ZINC000182378855    0.0900
     32 H32        -4.0000    2.6740   50.7948 H       1  ZINC000182378855    0.0400
     33 H33        -7.6269    2.3310   50.7529 H       1  ZINC000182378855    0.0600
     34 H34        -6.5487    1.7454   49.4634 H       1  ZINC000182378855    0.0700
     35 H35        -4.9861    0.8506   51.0336 H       1  ZINC000182378855    0.0800
     36 H36        -5.7172    1.7449   52.3879 H       1  ZINC000182378855    0.0800
     37 H37        -8.9915   -1.3027   51.8517 H       1  ZINC000182378855    0.1600
     38 H38       -11.8775   -0.4139   55.2431 H       1  ZINC000182378855    0.4000
     39 H39       -14.1413   -0.1189   53.6276 H       1  ZINC000182378855    0.0900
     40 H40       -14.8536   -1.6714   53.0861 H       1  ZINC000182378855    0.0900
     41 H41       -15.9796   -0.1047   55.0841 H       1  ZINC000182378855    0.1000
     42 H42       -16.1667   -1.8829   55.0161 H       1  ZINC000182378855    0.0700
     43 H43       -11.9896   -4.1452   56.7930 H       1  ZINC000182378855    0.1500
     44 H44       -10.0623   -3.9501   58.3126 H       1  ZINC000182378855    0.1500
     45 H45       -12.7647    0.0255   57.2323 H       1  ZINC000182378855    0.1500
     46 H46       -10.5653    0.9711   55.1378 H       1  ZINC000182378855    0.1400
     47 H47        -8.5297    2.3496   55.0714 H       1  ZINC000182378855    0.1700
@<TRIPOS>BOND
     1     1     2    1
     2     1    30    1
     3     1    31    1
     4     1    32    1
     5     2     3    1
     6     3     4    1
     7     3    33    1
     8     3    34    1
     9     4     5    1
    10     4    35    1
    11     4    36    1
    12     5     6    1
    13     6    29   ar
    14     6     7   ar
    15     7     8   ar
    16     7    37    1
    17     8     9    1
    18     8    27   ar
    19     9    10    2
    20     9    11   am
    21    11    12    1
    22    11    38    1
    23    12    13    1
    24    12    17    1
    25    12    14    1
    26    14    15    1
    27    14    39    1
    28    14    40    1
    29    15    16    1
    30    15    41    1
    31    15    42    1
    32    16    17    1
    33    17    18    1
    34    17    19    1
    35    19    26   ar
    36    19    20   ar
    37    20    21   ar
    38    20    43    1
    39    21    22   ar
    40    21    44    1
    41    22    23    1
    42    22    24   ar
    43    24    25    1
    44    24    26   ar
    45    26    45    1
    46    27    28   ar
    47    27    46    1
    48    28    29   ar
    49    28    47    1
@<TRIPOS>SUBSTRUCTURE
     1 ZINC000182378855        1 TEMP              0 ****  ****    0 ROOT


##########                                Name:    ZINC001176298561
##########                DOCK_Rotatable_Bonds:                   6
##########                         Heavy_Atoms:                  23
##########                    Molecular_Weight:             337.781
##########                DOCK_Rotatable_Bonds:                   6
##########                       Formal_Charge:          -0.0100003
##########                     HBond_Acceptors:                   7
##########                        HBond_Donors:                   2
##########                         Heavy_Atoms:                  23
##########                          Grid_Score:          -30.805525
##########                     Grid_vdw_energy:          -28.277834
##########                      Grid_es_energy:           -2.527690
##########           Internal_energy_repulsive:           11.166568

@<TRIPOS>MOLECULE
ZINC001176298561
 40 41 1 0 0
SMALL
USER_CHARGES


@<TRIPOS>ATOM
      1 C1         -3.6292    2.9146   53.2614 C.3     1  ZINC001176298561   -0.1700
      2 C2         -3.9497    3.9978   52.2294 C.3     1  ZINC001176298561    0.1100
      3 N3         -3.5356    3.5431   50.8997 N.am    1  ZINC001176298561   -0.6100
      4 C4         -2.1830    3.8299   50.4157 C.3     1  ZINC001176298561    0.0900
      5 C5         -1.2525    2.6734   50.7867 C.3     1  ZINC001176298561   -0.1800
      6 C6         -4.3991    2.8607   50.1218 C.2     1  ZINC001176298561    0.5600
      7 O7         -4.0556    2.4834   49.0186 O.2     1  ZINC001176298561   -0.5300
      8 C8         -5.7644    2.5709   50.6104 C.ar    1  ZINC001176298561   -0.0600
      9 C9         -6.0664    1.3155   51.1398 C.ar    1  ZINC001176298561   -0.1900
     10 C10        -7.3438    1.0469   51.5960 C.ar    1  ZINC001176298561    0.1400
     11 F11        -7.6345   -0.1687   52.1086 F       1  ZINC001176298561   -0.1300
     12 C12        -8.3253    2.0205   51.5293 C.ar    1  ZINC001176298561   -0.1800
     13 C13        -8.0325    3.2735   51.0033 C.ar    1  ZINC001176298561    0.2400
     14 N14        -9.0262    4.2530   50.9384 N.pl3   1  ZINC001176298561   -0.6700
     15 C15       -10.2266    3.9891   50.2679 C.2     1  ZINC001176298561    0.0400
     16 C16       -11.2725    3.4021   50.9262 C.2     1  ZINC001176298561   -0.0300
     17 C17       -12.4646    3.1490   50.2309 C.2     1  ZINC001176298561   -0.1300
     18 Cl18      -13.8039    2.4051   51.0473 Cl      1  ZINC001176298561   -0.0400
     19 C19       -12.5707    3.4850   48.9243 C.2     1  ZINC001176298561    0.1400
     20 N20       -11.5312    4.0688   48.2683 N.am    1  ZINC001176298561   -0.6000
     21 C21       -10.3741    4.3308   48.9056 C.2     1  ZINC001176298561    0.5100
     22 O22        -9.4506    4.8553   48.3039 O.2     1  ZINC001176298561   -0.5200
     23 C23        -6.7525    3.5533   50.5487 C.ar    1  ZINC001176298561   -0.1300
     24 H24        -3.9373    3.2529   54.2507 H       1  ZINC001176298561    0.0700
     25 H25        -4.1651    2.0003   53.0068 H       1  ZINC001176298561    0.0600
     26 H26        -2.5569    2.7191   53.2619 H       1  ZINC001176298561    0.0600
     27 H27        -5.0220    4.1933   52.2289 H       1  ZINC001176298561    0.0800
     28 H28        -3.4138    4.9121   52.4840 H       1  ZINC001176298561    0.0900
     29 H29        -2.2021    3.9476   49.3322 H       1  ZINC001176298561    0.0900
     30 H30        -1.8203    4.7497   50.8747 H       1  ZINC001176298561    0.0800
     31 H31        -1.7757    1.7273   50.6477 H       1  ZINC001176298561    0.0700
     32 H32        -0.3698    2.6979   50.1476 H       1  ZINC001176298561    0.0700
     33 H33        -0.9492    2.7712   51.8291 H       1  ZINC001176298561    0.0600
     34 H34        -5.3027    0.5537   51.1928 H       1  ZINC001176298561    0.1500
     35 H35        -9.3217    1.8058   51.8865 H       1  ZINC001176298561    0.1300
     36 H36        -8.8846    5.1161   51.3578 H       1  ZINC001176298561    0.4200
     37 H37       -11.1816    3.1364   51.9691 H       1  ZINC001176298561    0.1500
     38 H38       -13.4915    3.2870   48.3958 H       1  ZINC001176298561    0.1800
     39 H39       -11.6261    4.3022   47.3315 H       1  ZINC001176298561    0.4300
     40 H40        -6.5237    4.5264   50.1399 H       1  ZINC001176298561    0.1400
@<TRIPOS>BOND
     1     1     2    1
     2     1    24    1
     3     1    25    1
     4     1    26    1
     5     2     3    1
     6     2    27    1
     7     2    28    1
     8     3     4    1
     9     3     6   am
    10     4     5    1
    11     4    29    1
    12     4    30    1
    13     5    31    1
    14     5    32    1
    15     5    33    1
    16     6     7    2
    17     6     8    1
    18     8    23   ar
    19     8     9   ar
    20     9    10   ar
    21     9    34    1
    22    10    11    1
    23    10    12   ar
    24    12    13   ar
    25    12    35    1
    26    13    14    1
    27    13    23   ar
    28    14    15    1
    29    14    36    1
    30    15    21    1
    31    15    16    2
    32    16    17    1
    33    16    37    1
    34    17    18    1
    35    17    19    2
    36    19    20    1
    37    19    38    1
    38    20    21   am
    39    20    39    1
    40    21    22    2
    41    23    40    1
@<TRIPOS>SUBSTRUCTURE
     1 ZINC001176298561        1 TEMP              0 ****  ****    0 ROOT


##########                                Name:    ZINC000477589488
##########                DOCK_Rotatable_Bonds:                   6
##########                         Heavy_Atoms:                  32
##########                    Molecular_Weight:             423.517
##########                DOCK_Rotatable_Bonds:                   6
##########                       Formal_Charge:        -8.19564e-07
##########                     HBond_Acceptors:                   6
##########                        HBond_Donors:                   1
##########                         Heavy_Atoms:                  32
##########                          Grid_Score:          -30.801519
##########                     Grid_vdw_energy:          -29.277382
##########                      Grid_es_energy:           -1.524138
##########           Internal_energy_repulsive:           20.892906

@<TRIPOS>MOLECULE
ZINC000477589488
 57 61 1 0 0
SMALL
USER_CHARGES


@<TRIPOS>ATOM
      1 O1         -4.6203    5.5273   56.3716 O.2     1  ZINC000477589488   -0.5800
      2 C2         -4.3080    4.3548   56.2928 C.2     1  ZINC000477589488    0.7100
      3 N3         -5.1180    3.4826   55.6607 N.am    1  ZINC000477589488   -0.7400
      4 C4         -6.3777    3.9461   55.0736 C.3     1  ZINC000477589488    0.2500
      5 H5         -6.2331    4.9343   54.6370 H       1  ZINC000477589488    0.1100
      6 C6         -7.4343    4.0202   56.1457 C.ar    1  ZINC000477589488   -0.0900
      7 C7         -7.4382    3.0996   57.1769 C.ar    1  ZINC000477589488   -0.1000
      8 C8         -8.4074    3.1675   58.1603 C.ar    1  ZINC000477589488   -0.1200
      9 C9         -9.3722    4.1564   58.1127 C.ar    1  ZINC000477589488   -0.1200
     10 C10        -9.3676    5.0776   57.0821 C.ar    1  ZINC000477589488   -0.1200
     11 C11        -8.3959    5.0123   56.1009 C.ar    1  ZINC000477589488   -0.1000
     12 C12        -6.8168    2.9826   54.0014 C.ar    1  ZINC000477589488   -0.0700
     13 C13        -6.2642    3.0611   52.7119 C.ar    1  ZINC000477589488   -0.0400
     14 C14        -5.2974    4.0290   52.3899 C.ar    1  ZINC000477589488   -0.1100
     15 C15        -4.7841    4.0749   51.1304 C.ar    1  ZINC000477589488   -0.1100
     16 C16        -5.2031    3.1755   50.1514 C.ar    1  ZINC000477589488   -0.1100
     17 C17        -6.1376    2.2253   50.4266 C.ar    1  ZINC000477589488   -0.1100
     18 C18        -6.6900    2.1462   51.7165 C.ar    1  ZINC000477589488   -0.0500
     19 C19        -7.6565    1.1785   52.0384 C.ar    1  ZINC000477589488   -0.1000
     20 C20        -8.1689    1.1317   53.2987 C.ar    1  ZINC000477589488   -0.1100
     21 C21        -7.7468    2.0279   54.2785 C.ar    1  ZINC000477589488   -0.1100
     22 N22        -3.1491    3.9284   56.8329 N.am    1  ZINC000477589488   -0.6300
     23 C23        -2.2535    4.8622   57.5322 C.3     1  ZINC000477589488    0.1300
     24 C24        -1.9102    4.2722   58.9042 C.3     1  ZINC000477589488    0.0500
     25 N25        -1.3784    2.9139   58.7304 N.3     1  ZINC000477589488   -0.4700
     26 C26        -0.9042    2.4065   59.9350 C.ar    1  ZINC000477589488    0.2500
     27 C27         0.1517    1.4960   59.9445 C.ar    1  ZINC000477589488   -0.1300
     28 C28         0.5871    1.0200   61.1713 C.ar    1  ZINC000477589488   -0.0900
     29 C29        -0.0538    1.4783   62.3136 C.ar    1  ZINC000477589488    0.0200
     30 N30        -1.0455    2.3410   62.2122 N.ar    1  ZINC000477589488   -0.2200
     31 N31        -1.4502    2.7901   61.0800 N.ar    1  ZINC000477589488   -0.2800
     32 C32        -2.3839    2.0192   58.1416 C.3     1  ZINC000477589488    0.0400
     33 C33        -2.7494    2.5158   56.7437 C.3     1  ZINC000477589488    0.1200
     34 H34        -4.8669    2.5481   55.5943 H       1  ZINC000477589488    0.3900
     35 H35        -6.6845    2.3271   57.2140 H       1  ZINC000477589488    0.1100
     36 H36        -8.4110    2.4479   58.9655 H       1  ZINC000477589488    0.1200
     37 H37       -10.1298    4.2090   58.8806 H       1  ZINC000477589488    0.1200
     38 H38       -10.1216    5.8499   57.0447 H       1  ZINC000477589488    0.1200
     39 H39        -8.3922    5.7319   55.2957 H       1  ZINC000477589488    0.1200
     40 H40        -4.9637    4.7328   53.1380 H       1  ZINC000477589488    0.1300
     41 H41        -4.0413    4.8196   50.8856 H       1  ZINC000477589488    0.1300
     42 H42        -4.7800    3.2339   49.1595 H       1  ZINC000477589488    0.1300
     43 H43        -6.4531    1.5355   49.6577 H       1  ZINC000477589488    0.1300
     44 H44        -7.9913    0.4758   51.2898 H       1  ZINC000477589488    0.1300
     45 H45        -8.9120    0.3872   53.5434 H       1  ZINC000477589488    0.1300
     46 H46        -8.1692    1.9690   55.2708 H       1  ZINC000477589488    0.1200
     47 H47        -1.3402    4.9970   56.9527 H       1  ZINC000477589488    0.0800
     48 H48        -2.7537    5.8221   57.6612 H       1  ZINC000477589488    0.1100
     49 H49        -1.1613    4.8964   59.3916 H       1  ZINC000477589488    0.1000
     50 H50        -2.8094    4.2348   59.5193 H       1  ZINC000477589488    0.0600
     51 H51         0.6155    1.1714   59.0247 H       1  ZINC000477589488    0.1500
     52 H52         1.4009    0.3130   61.2363 H       1  ZINC000477589488    0.1500
     53 H53         0.2596    1.1280   63.2859 H       1  ZINC000477589488    0.1700
     54 H54        -1.9784    1.0096   58.0759 H       1  ZINC000477589488    0.1000
     55 H55        -3.2764    2.0132   58.7673 H       1  ZINC000477589488    0.0600
     56 H56        -3.5755    1.9240   56.3495 H       1  ZINC000477589488    0.0800
     57 H57        -1.8849    2.4268   56.0859 H       1  ZINC000477589488    0.0900
@<TRIPOS>BOND
     1     1     2    2
     2     2     3   am
     3     2    22   am
     4     3     4    1
     5     3    34    1
     6     4     5    1
     7     4     6    1
     8     4    12    1
     9     6    11   ar
    10     6     7   ar
    11     7     8   ar
    12     7    35    1
    13     8     9   ar
    14     8    36    1
    15     9    10   ar
    16     9    37    1
    17    10    11   ar
    18    10    38    1
    19    11    39    1
    20    12    21   ar
    21    12    13   ar
    22    13    18   ar
    23    13    14   ar
    24    14    15   ar
    25    14    40    1
    26    15    16   ar
    27    15    41    1
    28    16    17   ar
    29    16    42    1
    30    17    18   ar
    31    17    43    1
    32    18    19   ar
    33    19    20   ar
    34    19    44    1
    35    20    21   ar
    36    20    45    1
    37    21    46    1
    38    22    33    1
    39    22    23    1
    40    23    24    1
    41    23    47    1
    42    23    48    1
    43    24    25    1
    44    24    49    1
    45    24    50    1
    46    25    26    1
    47    25    32    1
    48    26    31   ar
    49    26    27   ar
    50    27    28   ar
    51    27    51    1
    52    28    29   ar
    53    28    52    1
    54    29    30   ar
    55    29    53    1
    56    30    31   ar
    57    32    33    1
    58    32    54    1
    59    32    55    1
    60    33    56    1
    61    33    57    1
@<TRIPOS>SUBSTRUCTURE
     1 ZINC000477589488        1 TEMP              0 ****  ****    0 ROOT


##########                                Name:    ZINC000938043669
##########                DOCK_Rotatable_Bonds:                   7
##########                         Heavy_Atoms:                  27
##########                    Molecular_Weight:             372.439
##########                DOCK_Rotatable_Bonds:                   7
##########                       Formal_Charge:           0.0499999
##########                     HBond_Acceptors:                   6
##########                        HBond_Donors:                   1
##########                         Heavy_Atoms:                  27
##########                          Grid_Score:          -30.798891
##########                     Grid_vdw_energy:          -30.484512
##########                      Grid_es_energy:           -0.314379
##########           Internal_energy_repulsive:           22.237337

@<TRIPOS>MOLECULE
ZINC000938043669
 52 55 1 0 0
SMALL
USER_CHARGES


@<TRIPOS>ATOM
      1 O1         -3.5251    1.9240   52.2066 O.2     1  ZINC000938043669   -0.5000
      2 C2         -3.9129    2.5382   51.2353 C.2     1  ZINC000938043669    0.5300
      3 C3         -2.9173    3.1295   50.2709 C.3     1  ZINC000938043669    0.0500
      4 O4         -1.6647    2.4551   50.4061 O.3     1  ZINC000938043669   -0.2800
      5 C5         -0.8876    2.8031   51.4660 C.ar    1  ZINC000938043669    0.0900
      6 C6         -1.3236    3.7693   52.3592 C.ar    1  ZINC000938043669   -0.1800
      7 C7         -0.5322    4.1213   53.4364 C.ar    1  ZINC000938043669   -0.0900
      8 C8          0.6937    3.5112   53.6244 C.ar    1  ZINC000938043669   -0.1300
      9 C9          1.1329    2.5471   52.7354 C.ar    1  ZINC000938043669   -0.1100
     10 C10         0.3428    2.1868   51.6591 C.ar    1  ZINC000938043669    0.0800
     11 F11         0.7714    1.2451   50.7906 F       1  ZINC000938043669   -0.1300
     12 N12        -5.2342    2.6871   51.0154 N.am    1  ZINC000938043669   -0.6200
     13 C13        -5.8391    3.4002   49.8809 C.3     1  ZINC000938043669    0.1000
     14 C14        -7.3706    3.2864   50.0322 C.3     1  ZINC000938043669   -0.1400
     15 C15        -7.5388    2.0353   50.9344 C.3     1  ZINC000938043669    0.1300
     16 H16        -7.4879    1.1195   50.3457 H       1  ZINC000938043669    0.1100
     17 N17        -8.7903    2.0995   51.6933 N.am    1  ZINC000938043669   -0.7200
     18 C18        -9.2571    0.9999   52.3173 C.2     1  ZINC000938043669    0.5200
     19 O19        -8.6404   -0.0423   52.2518 O.2     1  ZINC000938043669   -0.5200
     20 C20       -10.5454    1.0655   53.0964 C.3     1  ZINC000938043669   -0.1000
     21 H21       -10.9045    2.0943   53.1183 H       1  ZINC000938043669    0.1000
     22 C22       -10.3011    0.5803   54.5272 C.3     1  ZINC000938043669   -0.1100
     23 C23       -11.1873   -0.6386   54.8142 C.3     1  ZINC000938043669   -0.0600
     24 H24       -10.9916   -1.0324   55.8115 H       1  ZINC000938043669    0.0800
     25 C25       -10.8945   -1.6883   53.7524 C.2     1  ZINC000938043669   -0.1800
     26 C26       -11.1070   -1.2664   52.5082 C.2     1  ZINC000938043669   -0.1300
     27 C27       -11.5954    0.1718   52.4240 C.3     1  ZINC000938043669   -0.0400
     28 H28       -11.7588    0.4645   51.3868 H       1  ZINC000938043669    0.0900
     29 C29       -12.8986    0.2695   53.2289 C.3     1  ZINC000938043669   -0.1200
     30 C30       -12.6550   -0.2109   54.6764 C.3     1  ZINC000938043669   -0.1100
     31 C31        -6.3125    2.1567   51.8695 C.3     1  ZINC000938043669    0.1000
     32 H32        -3.2849    3.0119   49.2514 H       1  ZINC000938043669    0.1000
     33 H33        -2.7848    4.1891   50.4894 H       1  ZINC000938043669    0.1000
     34 H34        -2.2812    4.2469   52.2134 H       1  ZINC000938043669    0.1400
     35 H35        -0.8721    4.8743   54.1320 H       1  ZINC000938043669    0.1300
     36 H36         1.3100    3.7882   54.4670 H       1  ZINC000938043669    0.1400
     37 H37         2.0914    2.0722   52.8843 H       1  ZINC000938043669    0.1500
     38 H38        -5.5415    4.4486   49.9008 H       1  ZINC000938043669    0.0800
     39 H39        -5.5240    2.9410   48.9440 H       1  ZINC000938043669    0.0800
     40 H40        -7.7768    4.1719   50.5212 H       1  ZINC000938043669    0.0900
     41 H41        -7.8433    3.1291   49.0627 H       1  ZINC000938043669    0.1000
     42 H42        -9.2828    2.9335   51.7467 H       1  ZINC000938043669    0.4000
     43 H43        -9.2534    0.3026   54.6424 H       1  ZINC000938043669    0.0700
     44 H44       -10.5441    1.3790   55.2279 H       1  ZINC000938043669    0.0800
     45 H45       -10.5466   -2.6836   53.9866 H       1  ZINC000938043669    0.1200
     46 H46       -10.9469   -1.8872   51.6390 H       1  ZINC000938043669    0.1200
     47 H47       -13.2359    1.3057   53.2497 H       1  ZINC000938043669    0.0700
     48 H48       -13.6623   -0.3513   52.7602 H       1  ZINC000938043669    0.0700
     49 H49       -13.3012   -1.0623   54.8900 H       1  ZINC000938043669    0.0700
     50 H50       -12.8801    0.5987   55.3704 H       1  ZINC000938043669    0.0700
     51 H51        -6.0401    1.1788   52.2666 H       1  ZINC000938043669    0.0900
     52 H52        -6.5225    2.8520   52.6822 H       1  ZINC000938043669    0.0700
@<TRIPOS>BOND
     1     1     2    2
     2     2     3    1
     3     2    12   am
     4     3     4    1
     5     3    32    1
     6     3    33    1
     7     4     5    1
     8     5    10   ar
     9     5     6   ar
    10     6     7   ar
    11     6    34    1
    12     7     8   ar
    13     7    35    1
    14     8     9   ar
    15     8    36    1
    16     9    10   ar
    17     9    37    1
    18    10    11    1
    19    12    31    1
    20    12    13    1
    21    13    14    1
    22    13    38    1
    23    13    39    1
    24    14    15    1
    25    14    40    1
    26    14    41    1
    27    15    16    1
    28    15    17    1
    29    15    31    1
    30    17    18   am
    31    17    42    1
    32    18    19    2
    33    18    20    1
    34    20    21    1
    35    20    27    1
    36    20    22    1
    37    22    23    1
    38    22    43    1
    39    22    44    1
    40    23    24    1
    41    23    30    1
    42    23    25    1
    43    25    26    2
    44    25    45    1
    45    26    27    1
    46    26    46    1
    47    27    28    1
    48    27    29    1
    49    29    30    1
    50    29    47    1
    51    29    48    1
    52    30    49    1
    53    30    50    1
    54    31    51    1
    55    31    52    1
@<TRIPOS>SUBSTRUCTURE
     1 ZINC000938043669        1 TEMP              0 ****  ****    0 ROOT


##########                                Name:    ZINC000028372981
##########                DOCK_Rotatable_Bonds:                   7
##########                         Heavy_Atoms:                  28
##########                    Molecular_Weight:             380.443
##########                DOCK_Rotatable_Bonds:                   7
##########                       Formal_Charge:         1.78814e-07
##########                     HBond_Acceptors:                   6
##########                        HBond_Donors:                   1
##########                         Heavy_Atoms:                  28
##########                          Grid_Score:          -30.792738
##########                     Grid_vdw_energy:          -30.289246
##########                      Grid_es_energy:           -0.503492
##########           Internal_energy_repulsive:           20.233852

@<TRIPOS>MOLECULE
ZINC000028372981
 52 54 1 0 0
SMALL
USER_CHARGES


@<TRIPOS>ATOM
      1 C1         -2.9439    4.2915   51.0114 C.3     1  ZINC000028372981   -0.1800
      2 C2         -3.8409    3.1087   51.2711 C.2     1  ZINC000028372981    0.5200
      3 O3         -3.3579    2.0195   51.4973 O.2     1  ZINC000028372981   -0.5100
      4 N4         -5.1799    3.2613   51.2517 N.am    1  ZINC000028372981   -0.5500
      5 C5         -5.8762    4.5240   50.9922 C.3     1  ZINC000028372981    0.1000
      6 C6         -7.3732    4.1846   51.0785 C.3     1  ZINC000028372981   -0.0900
      7 C7         -7.4089    2.7051   51.3908 C.ar    1  ZINC000028372981   -0.1500
      8 C8         -8.4711    1.8490   51.5766 C.ar    1  ZINC000028372981    0.0000
      9 C9         -8.2407    0.5006   51.8645 C.ar    1  ZINC000028372981   -0.1600
     10 C10        -9.3746   -0.4195   52.0695 C.2     1  ZINC000028372981    0.5200
     11 O11        -9.1742   -1.6110   52.1990 O.2     1  ZINC000028372981   -0.5000
     12 O12       -10.6327    0.0608   52.1133 O.3     1  ZINC000028372981   -0.3200
     13 C13       -11.6804   -0.8691   52.4952 C.3     1  ZINC000028372981    0.0700
     14 H14       -11.5720   -1.7923   51.9259 H       1  ZINC000028372981    0.1200
     15 C15       -13.0469   -0.2465   52.2016 C.3     1  ZINC000028372981   -0.1700
     16 C16       -11.5719   -1.1711   53.9677 C.2     1  ZINC000028372981    0.5200
     17 O17       -11.5143   -2.3213   54.3481 O.2     1  ZINC000028372981   -0.4900
     18 N18       -11.5387   -0.1631   54.8617 N.am    1  ZINC000028372981   -0.6600
     19 C19       -11.4379   -0.4436   56.2288 C.ar    1  ZINC000028372981    0.1500
     20 C20       -12.2869   -1.3745   56.8126 C.ar    1  ZINC000028372981   -0.1300
     21 C21       -12.1845   -1.6494   58.1623 C.ar    1  ZINC000028372981   -0.1000
     22 C22       -11.2376   -0.9992   58.9319 C.ar    1  ZINC000028372981   -0.1300
     23 C23       -10.3902   -0.0719   58.3535 C.ar    1  ZINC000028372981   -0.0700
     24 C24        -9.3592    0.6341   59.1959 C.3     1  ZINC000028372981   -0.1200
     25 C25       -10.4880    0.2082   57.0048 C.ar    1  ZINC000028372981   -0.1200
     26 C26        -9.5650    1.2195   56.3755 C.3     1  ZINC000028372981   -0.1200
     27 C27        -6.9273    0.0297   51.9509 C.ar    1  ZINC000028372981   -0.0200
     28 C28        -5.8734    0.8900   51.7588 C.ar    1  ZINC000028372981   -0.1800
     29 C29        -6.1022    2.2409   51.4758 C.ar    1  ZINC000028372981    0.1900
     30 H30        -3.1320    5.0614   51.7598 H       1  ZINC000028372981    0.1000
     31 H31        -1.9019    3.9766   51.0681 H       1  ZINC000028372981    0.1000
     32 H32        -3.1490    4.6921   50.0187 H       1  ZINC000028372981    0.1000
     33 H33        -5.6122    5.2635   51.7482 H       1  ZINC000028372981    0.0900
     34 H34        -5.6292    4.8944   49.9974 H       1  ZINC000028372981    0.0900
     35 H35        -7.8469    4.7537   51.8784 H       1  ZINC000028372981    0.1000
     36 H36        -7.8645    4.3863   50.1266 H       1  ZINC000028372981    0.1000
     37 H37        -9.4826    2.2201   51.5040 H       1  ZINC000028372981    0.1400
     38 H38       -13.1553    0.6768   52.7709 H       1  ZINC000028372981    0.0800
     39 H39       -13.1254   -0.0280   51.1366 H       1  ZINC000028372981    0.0800
     40 H40       -13.8334   -0.9445   52.4883 H       1  ZINC000028372981    0.0800
     41 H41       -11.5848    0.7567   54.5574 H       1  ZINC000028372981    0.4100
     42 H42       -13.0235   -1.8862   56.2109 H       1  ZINC000028372981    0.1400
     43 H43       -12.8446   -2.3734   58.6169 H       1  ZINC000028372981    0.1300
     44 H44       -11.1593   -1.2163   59.9870 H       1  ZINC000028372981    0.1200
     45 H45        -8.4335    0.0585   59.1954 H       1  ZINC000028372981    0.0700
     46 H46        -9.1708    1.6256   58.7844 H       1  ZINC000028372981    0.0700
     47 H47        -9.7276    0.7287   60.2175 H       1  ZINC000028372981    0.0700
     48 H48        -8.6648    0.7181   56.0198 H       1  ZINC000028372981    0.0700
     49 H49       -10.0692    1.6992   55.5366 H       1  ZINC000028372981    0.0600
     50 H50        -9.2931    1.9729   57.1149 H       1  ZINC000028372981    0.0800
     51 H51        -6.7409   -1.0115   52.1686 H       1  ZINC000028372981    0.1500
     52 H52        -4.8608    0.5207   51.8271 H       1  ZINC000028372981    0.1500
@<TRIPOS>BOND
     1     1     2    1
     2     1    30    1
     3     1    31    1
     4     1    32    1
     5     2     3    2
     6     2     4   am
     7     4    29    1
     8     4     5    1
     9     5     6    1
    10     5    33    1
    11     5    34    1
    12     6     7    1
    13     6    35    1
    14     6    36    1
    15     7    29   ar
    16     7     8   ar
    17     8     9   ar
    18     8    37    1
    19     9    10    1
    20     9    27   ar
    21    10    11    2
    22    10    12    1
    23    12    13    1
    24    13    14    1
    25    13    15    1
    26    13    16    1
    27    15    38    1
    28    15    39    1
    29    15    40    1
    30    16    17    2
    31    16    18   am
    32    18    19    1
    33    18    41    1
    34    19    25   ar
    35    19    20   ar
    36    20    21   ar
    37    20    42    1
    38    21    22   ar
    39    21    43    1
    40    22    23   ar
    41    22    44    1
    42    23    24    1
    43    23    25   ar
    44    24    45    1
    45    24    46    1
    46    24    47    1
    47    25    26    1
    48    26    48    1
    49    26    49    1
    50    26    50    1
    51    27    28   ar
    52    27    51    1
    53    28    29   ar
    54    28    52    1
@<TRIPOS>SUBSTRUCTURE
     1 ZINC000028372981        1 TEMP              0 ****  ****    0 ROOT


##########                                Name:    ZINC000573650873
##########                DOCK_Rotatable_Bonds:                  10
##########                         Heavy_Atoms:                  28
##########                    Molecular_Weight:             418.843
##########                DOCK_Rotatable_Bonds:                  10
##########                       Formal_Charge:          -0.0500001
##########                     HBond_Acceptors:                   9
##########                        HBond_Donors:                   1
##########                         Heavy_Atoms:                  28
##########                          Grid_Score:          -30.764959
##########                     Grid_vdw_energy:          -28.838259
##########                      Grid_es_energy:           -1.926701
##########           Internal_energy_repulsive:           15.614928

@<TRIPOS>MOLECULE
ZINC000573650873
 50 51 1 0 0
SMALL
USER_CHARGES


@<TRIPOS>ATOM
      1 C1         -9.9499    0.7112   62.9337 C.3     1  ZINC000573650873   -0.1400
      2 C2        -10.8419    0.9471   61.7132 C.3     1  ZINC000573650873    0.0100
      3 C3        -11.9281    1.9657   62.0645 C.3     1  ZINC000573650873   -0.1400
      4 C4         -9.9941    1.4835   60.5580 C.3     1  ZINC000573650873   -0.1500
      5 C5        -11.4855   -0.3523   61.3028 C.2     1  ZINC000573650873   -0.0100
      6 C6        -12.7947   -0.5535   61.0261 C.2     1  ZINC000573650873   -0.1800
      7 C7        -12.8666   -1.9359   60.6974 C.2     1  ZINC000573650873   -0.0300
      8 C8        -14.0784   -2.6979   60.3089 C.2     1  ZINC000573650873    0.6000
      9 O9        -14.7389   -3.2627   61.1579 O.2     1  ZINC000573650873   -0.5100
     10 N10       -14.4468   -2.7637   59.0141 N.am    1  ZINC000573650873   -0.5900
     11 C11       -13.6503   -2.0826   57.9903 C.3     1  ZINC000573650873    0.1200
     12 C12       -12.5721   -3.0335   57.4668 C.3     1  ZINC000573650873   -0.1000
     13 C13       -12.1710   -2.6202   56.0742 C.ar    1  ZINC000573650873   -0.0800
     14 C14       -11.5241   -1.4156   55.8704 C.ar    1  ZINC000573650873   -0.1000
     15 C15       -11.1559   -1.0359   54.5934 C.ar    1  ZINC000573650873   -0.1100
     16 C16       -11.4349   -1.8617   53.5191 C.ar    1  ZINC000573650873   -0.0400
     17 Cl17      -10.9723   -1.3859   51.9149 Cl      1  ZINC000573650873   -0.0700
     18 C18       -12.0824   -3.0672   53.7236 C.ar    1  ZINC000573650873   -0.1100
     19 C19       -12.4450   -3.4483   55.0018 C.ar    1  ZINC000573650873   -0.1000
     20 C20       -15.6437   -3.5162   58.6304 C.3     1  ZINC000573650873    0.0700
     21 C21       -16.7427   -2.5421   58.2008 C.3     1  ZINC000573650873    0.0600
     22 H22       -16.2886   -1.6345   57.8034 H       1  ZINC000573650873    0.1400
     23 O23       -17.5514   -3.1512   57.1923 O.3     1  ZINC000573650873   -0.5200
     24 C24       -17.6130   -2.1902   59.4089 C.3     1  ZINC000573650873    0.4300
     25 F25       -16.8678   -1.4269   60.3141 F       1  ZINC000573650873   -0.1700
     26 F26       -18.7251   -1.4553   58.9842 F       1  ZINC000573650873   -0.1700
     27 F27       -18.0420   -3.3664   60.0331 F       1  ZINC000573650873   -0.1800
     28 N28       -11.6465   -2.3997   60.8066 N.2     1  ZINC000573650873   -0.3400
     29 O29       -10.8716   -1.5318   61.1354 O.3     1  ZINC000573650873    0.1300
     30 H30       -10.5539    0.3291   63.7567 H       1  ZINC000573650873    0.0600
     31 H31        -9.1760   -0.0144   62.6834 H       1  ZINC000573650873    0.0600
     32 H32        -9.4843    1.6511   63.2305 H       1  ZINC000573650873    0.0700
     33 H33       -11.4626    2.9054   62.3614 H       1  ZINC000573650873    0.0700
     34 H34       -12.5635    2.1336   61.1950 H       1  ZINC000573650873    0.0600
     35 H35       -12.5321    1.5835   62.8875 H       1  ZINC000573650873    0.0600
     36 H36        -9.2203    0.7579   60.3076 H       1  ZINC000573650873    0.0600
     37 H37       -10.6295    1.6515   59.6885 H       1  ZINC000573650873    0.0600
     38 H38        -9.5286    2.4233   60.8549 H       1  ZINC000573650873    0.0700
     39 H39       -13.5983    0.1676   61.0495 H       1  ZINC000573650873    0.1800
     40 H40       -14.2983   -1.7798   57.1678 H       1  ZINC000573650873    0.0900
     41 H41       -13.1780   -1.2013   58.4243 H       1  ZINC000573650873    0.1000
     42 H42       -11.7023   -2.9929   58.1225 H       1  ZINC000573650873    0.0800
     43 H43       -12.9638   -4.0505   57.4454 H       1  ZINC000573650873    0.0800
     44 H44       -11.3066   -0.7708   56.7092 H       1  ZINC000573650873    0.1300
     45 H45       -10.6509   -0.0947   54.4343 H       1  ZINC000573650873    0.1300
     46 H46       -12.3008   -3.7122   52.8853 H       1  ZINC000573650873    0.1300
     47 H47       -12.9502   -4.3894   55.1616 H       1  ZINC000573650873    0.1300
     48 H48       -15.4041   -4.1822   57.8015 H       1  ZINC000573650873    0.1000
     49 H49       -15.9912   -4.1041   59.4801 H       1  ZINC000573650873    0.1200
     50 H50       -17.9323   -4.0008   57.4536 H       1  ZINC000573650873    0.3900
@<TRIPOS>BOND
     1     1     2    1
     2     1    30    1
     3     1    31    1
     4     1    32    1
     5     2     3    1
     6     2     4    1
     7     2     5    1
     8     3    33    1
     9     3    34    1
    10     3    35    1
    11     4    36    1
    12     4    37    1
    13     4    38    1
    14     5    29    1
    15     5     6    2
    16     6     7    1
    17     6    39    1
    18     7     8    1
    19     7    28    2
    20     8     9    2
    21     8    10   am
    22    10    11    1
    23    10    20    1
    24    11    12    1
    25    11    40    1
    26    11    41    1
    27    12    13    1
    28    12    42    1
    29    12    43    1
    30    13    19   ar
    31    13    14   ar
    32    14    15   ar
    33    14    44    1
    34    15    16   ar
    35    15    45    1
    36    16    17    1
    37    16    18   ar
    38    18    19   ar
    39    18    46    1
    40    19    47    1
    41    20    21    1
    42    20    48    1
    43    20    49    1
    44    21    22    1
    45    21    23    1
    46    21    24    1
    47    23    50    1
    48    24    25    1
    49    24    26    1
    50    24    27    1
    51    28    29    1
@<TRIPOS>SUBSTRUCTURE
     1 ZINC000573650873        1 TEMP              0 ****  ****    0 ROOT


##########                                Name:    ZINC001513543414
##########                DOCK_Rotatable_Bonds:                   6
##########                         Heavy_Atoms:                  26
##########                    Molecular_Weight:             364.488
##########                DOCK_Rotatable_Bonds:                   6
##########                       Formal_Charge:         -0.00999974
##########                     HBond_Acceptors:                   7
##########                        HBond_Donors:                   0
##########                         Heavy_Atoms:                  26
##########                          Grid_Score:          -30.751465
##########                     Grid_vdw_energy:          -29.291344
##########                      Grid_es_energy:           -1.460122
##########           Internal_energy_repulsive:           13.448673

@<TRIPOS>MOLECULE
ZINC001513543414
 58 61 1 0 0
SMALL
USER_CHARGES


@<TRIPOS>ATOM
      1 C1         -9.3894    1.4222   54.0433 C.3     1  ZINC001513543414   -0.1500
      2 C2         -9.5729    2.6018   55.0002 C.3     1  ZINC001513543414   -0.1200
      3 C3         -8.8029    2.3330   56.2946 C.3     1  ZINC001513543414    0.1100
      4 C4         -7.2980    2.3918   56.0249 C.3     1  ZINC001513543414   -0.1500
      5 C5         -9.1872    3.3819   57.3602 C.3     1  ZINC001513543414   -0.1500
      6 C6         -9.2425    2.5293   58.6571 C.3     1  ZINC001513543414   -0.1500
      7 C7         -9.7684    1.1820   58.1012 C.3     1  ZINC001513543414    0.0700
      8 H8        -10.8536    1.2112   58.0027 H       1  ZINC001513543414    0.0800
      9 C9         -9.3500    0.0300   59.0171 C.3     1  ZINC001513543414    0.1100
     10 N10       -10.5077   -0.4229   59.7922 N.pl3   1  ZINC001513543414   -0.4600
     11 C11       -10.7465   -0.2079   61.1213 C.2     1  ZINC001513543414    0.1900
     12 C12        -9.8598    0.5477   62.0772 C.3     1  ZINC001513543414    0.1800
     13 H13        -9.4442    1.4297   61.5900 H       1  ZINC001513543414    0.1000
     14 C14       -10.6573    0.9571   63.3411 C.3     1  ZINC001513543414   -0.1500
     15 C15        -9.5119    1.0938   64.3810 C.3     1  ZINC001513543414   -0.1500
     16 C16        -8.5282   -0.0079   63.9316 C.3     1  ZINC001513543414    0.0500
     17 O17        -8.8047   -0.3015   62.5557 O.3     1  ZINC001513543414   -0.3500
     18 N18       -11.8832   -0.7767   61.4077 N.2     1  ZINC001513543414   -0.2600
     19 N19       -12.3749   -1.3322   60.3582 N.2     1  ZINC001513543414   -0.3100
     20 C20       -11.5743   -1.1416   59.3362 C.2     1  ZINC001513543414    0.3400
     21 N21       -11.7704   -1.5926   58.0406 N.3     1  ZINC001513543414   -0.4500
     22 C22       -13.0114   -1.0305   57.4663 C.3     1  ZINC001513543414    0.0500
     23 C23       -13.5590   -2.1451   56.5404 C.3     1  ZINC001513543414   -0.1500
     24 C24       -13.2106   -3.4228   57.3483 C.3     1  ZINC001513543414    0.0700
     25 H25       -13.9669   -3.6159   58.1092 H       1  ZINC001513543414    0.0800
     26 O26       -13.0724   -4.5485   56.4787 O.3     1  ZINC001513543414   -0.3800
     27 C27       -14.3108   -5.0370   55.9591 C.3     1  ZINC001513543414    0.0300
     28 C28       -11.8591   -3.0637   58.0010 C.3     1  ZINC001513543414    0.0600
     29 O29        -9.1541    1.0435   56.8101 O.3     1  ZINC001513543414   -0.3600
     30 H30        -9.9379    1.6138   53.1211 H       1  ZINC001513543414    0.0500
     31 H31        -8.3302    1.2992   53.8170 H       1  ZINC001513543414    0.0500
     32 H32        -9.7692    0.5133   54.5098 H       1  ZINC001513543414    0.0600
     33 H33        -9.1931    3.5107   54.5336 H       1  ZINC001513543414    0.0700
     34 H34       -10.6320    2.7248   55.2263 H       1  ZINC001513543414    0.0600
     35 H35        -7.0328    3.3839   55.6597 H       1  ZINC001513543414    0.0700
     36 H36        -6.7551    2.1872   56.9478 H       1  ZINC001513543414    0.0600
     37 H37        -7.0339    1.6460   55.2752 H       1  ZINC001513543414    0.0700
     38 H38        -8.4229    4.1552   57.4367 H       1  ZINC001513543414    0.0900
     39 H39       -10.1618    3.8183   57.1410 H       1  ZINC001513543414    0.0800
     40 H40        -8.2505    2.4137   59.0937 H       1  ZINC001513543414    0.0800
     41 H41        -9.9398    2.9558   59.3782 H       1  ZINC001513543414    0.0900
     42 H42        -8.9716   -0.7949   58.4135 H       1  ZINC001513543414    0.1000
     43 H43        -8.5689    0.3714   59.6964 H       1  ZINC001513543414    0.1100
     44 H44       -11.1684    1.9083   63.1921 H       1  ZINC001513543414    0.0900
     45 H45       -11.3607    0.1767   63.6316 H       1  ZINC001513543414    0.0900
     46 H46        -9.0471    2.0778   64.3189 H       1  ZINC001513543414    0.0800
     47 H47        -9.8780    0.8994   65.3891 H       1  ZINC001513543414    0.0900
     48 H48        -7.5030    0.3478   64.0336 H       1  ZINC001513543414    0.0700
     49 H49        -8.6727   -0.9022   64.5378 H       1  ZINC001513543414    0.0700
     50 H50       -13.7282   -0.8074   58.2565 H       1  ZINC001513543414    0.0600
     51 H51       -12.7897   -0.1327   56.8892 H       1  ZINC001513543414    0.0900
     52 H52       -14.6366   -2.0485   56.4081 H       1  ZINC001513543414    0.0800
     53 H53       -13.0471   -2.1399   55.5781 H       1  ZINC001513543414    0.0900
     54 H54       -14.1204   -5.8908   55.3088 H       1  ZINC001513543414    0.0900
     55 H55       -14.9546   -5.3442   56.7832 H       1  ZINC001513543414    0.0400
     56 H56       -14.8018   -4.2483   55.3890 H       1  ZINC001513543414    0.0400
     57 H57       -11.0406   -3.4687   57.4057 H       1  ZINC001513543414    0.1000
     58 H58       -11.8181   -3.4652   59.0136 H       1  ZINC001513543414    0.0900
@<TRIPOS>BOND
     1     1     2    1
     2     1    30    1
     3     1    31    1
     4     1    32    1
     5     2     3    1
     6     2    33    1
     7     2    34    1
     8     3    29    1
     9     3     4    1
    10     3     5    1
    11     4    35    1
    12     4    36    1
    13     4    37    1
    14     5     6    1
    15     5    38    1
    16     5    39    1
    17     6     7    1
    18     6    40    1
    19     6    41    1
    20     7     8    1
    21     7     9    1
    22     7    29    1
    23     9    10    1
    24     9    42    1
    25     9    43    1
    26    10    20    1
    27    10    11    1
    28    11    12    1
    29    11    18    2
    30    12    13    1
    31    12    17    1
    32    12    14    1
    33    14    15    1
    34    14    44    1
    35    14    45    1
    36    15    16    1
    37    15    46    1
    38    15    47    1
    39    16    17    1
    40    16    48    1
    41    16    49    1
    42    18    19    1
    43    19    20    2
    44    20    21    1
    45    21    28    1
    46    21    22    1
    47    22    23    1
    48    22    50    1
    49    22    51    1
    50    23    24    1
    51    23    52    1
    52    23    53    1
    53    24    25    1
    54    24    26    1
    55    24    28    1
    56    26    27    1
    57    27    54    1
    58    27    55    1
    59    27    56    1
    60    28    57    1
    61    28    58    1
@<TRIPOS>SUBSTRUCTURE
     1 ZINC001513543414        1 TEMP              0 ****  ****    0 ROOT


##########                                Name:    ZINC000433961694
##########                DOCK_Rotatable_Bonds:                   7
##########                         Heavy_Atoms:                  29
##########                    Molecular_Weight:             413.472
##########                DOCK_Rotatable_Bonds:                   7
##########                       Formal_Charge:          0.00999992
##########                     HBond_Acceptors:                   8
##########                        HBond_Donors:                   0
##########                         Heavy_Atoms:                  29
##########                          Grid_Score:          -30.719431
##########                     Grid_vdw_energy:          -30.210846
##########                      Grid_es_energy:           -0.508585
##########           Internal_energy_repulsive:           18.540558

@<TRIPOS>MOLECULE
ZINC000433961694
 49 52 1 0 0
SMALL
USER_CHARGES


@<TRIPOS>ATOM
      1 C1        -12.7202    0.0433   52.3625 C.3     1  ZINC000433961694   -0.1000
      2 C2        -12.3420   -1.0986   53.2703 C.2     1  ZINC000433961694    0.1600
      3 C3        -11.0549   -1.4166   53.5576 C.2     1  ZINC000433961694   -0.3000
      4 C4         -9.8611   -0.7299   53.0527 C.2     1  ZINC000433961694    0.6200
      5 O5         -9.2372   -1.2007   52.1201 O.2     1  ZINC000433961694   -0.5100
      6 N6         -9.4553    0.4225   53.6217 N.am    1  ZINC000433961694   -0.6100
      7 C7        -10.1142    1.1010   54.7526 C.3     1  ZINC000433961694    0.1100
      8 C8         -8.9990    1.9535   55.4078 C.3     1  ZINC000433961694   -0.1300
      9 C9         -8.1976    2.4256   54.1659 C.3     1  ZINC000433961694    0.0800
     10 H10        -8.6658    3.3002   53.7144 H       1  ZINC000433961694    0.1000
     11 O11        -6.8406    2.7051   54.5163 O.3     1  ZINC000433961694   -0.2900
     12 C12        -6.0242    3.1384   53.5222 C.ar    1  ZINC000433961694    0.1700
     13 C13        -4.6858    3.4298   53.7735 C.ar    1  ZINC000433961694   -0.2600
     14 C14        -3.8885    3.8678   52.7362 C.ar    1  ZINC000433961694    0.1400
     15 N15        -4.3796    4.0112   51.5199 N.ar    1  ZINC000433961694   -0.5100
     16 C16        -5.6421    3.7453   51.2425 C.ar    1  ZINC000433961694    0.1400
     17 C17        -6.5023    3.2974   52.2239 C.ar    1  ZINC000433961694   -0.2000
     18 C18        -8.2785    1.2078   53.2216 C.3     1  ZINC000433961694    0.0600
     19 S19       -11.0743   -2.8019   54.6464 S.3     1  ZINC000433961694    0.2100
     20 C20       -12.7833   -2.8185   54.6100 C.2     1  ZINC000433961694    0.0400
     21 C21       -13.6501   -3.7991   55.3571 C.3     1  ZINC000433961694    0.1400
     22 O22       -13.0909   -4.0405   56.6499 O.3     1  ZINC000433961694   -0.3000
     23 C23       -13.8363   -3.6680   57.7241 C.ar    1  ZINC000433961694    0.1200
     24 C24       -13.3236   -2.7679   58.6464 C.ar    1  ZINC000433961694   -0.1800
     25 C25       -14.0821   -2.3903   59.7374 C.ar    1  ZINC000433961694   -0.1100
     26 C26       -15.3535   -2.9103   59.9109 C.ar    1  ZINC000433961694    0.0600
     27 F27       -16.0941   -2.5406   60.9785 F       1  ZINC000433961694   -0.1400
     28 C28       -15.8668   -3.8086   58.9907 C.ar    1  ZINC000433961694   -0.1100
     29 C29       -15.1126   -4.1835   57.8956 C.ar    1  ZINC000433961694   -0.1200
     30 N30       -13.2276   -1.8661   53.8545 N.2     1  ZINC000433961694   -0.4500
     31 H31       -12.8303    0.9542   52.9510 H       1  ZINC000433961694    0.0800
     32 H32       -11.9406    0.1861   51.6142 H       1  ZINC000433961694    0.1000
     33 H33       -13.6633   -0.1845   51.8657 H       1  ZINC000433961694    0.0800
     34 H34       -10.9198    1.7414   54.3935 H       1  ZINC000433961694    0.0800
     35 H35       -10.4984    0.3687   55.4626 H       1  ZINC000433961694    0.1000
     36 H36        -9.4213    2.8021   55.9460 H       1  ZINC000433961694    0.1000
     37 H37        -8.3780    1.3455   56.0657 H       1  ZINC000433961694    0.1000
     38 H38        -4.2777    3.3149   54.7669 H       1  ZINC000433961694    0.1400
     39 H39        -2.8494    4.0964   52.9222 H       1  ZINC000433961694    0.1600
     40 H40        -6.0054    3.8758   50.2339 H       1  ZINC000433961694    0.1700
     41 H41        -7.5343    3.0813   51.9903 H       1  ZINC000433961694    0.1400
     42 H42        -7.3751    0.6051   53.3155 H       1  ZINC000433961694    0.0900
     43 H43        -8.3967    1.5447   52.1917 H       1  ZINC000433961694    0.0800
     44 H44       -14.6534   -3.3875   55.4664 H       1  ZINC000433961694    0.0900
     45 H45       -13.7002   -4.7359   54.8023 H       1  ZINC000433961694    0.1000
     46 H46       -12.3316   -2.3627   58.5118 H       1  ZINC000433961694    0.1400
     47 H47       -13.6831   -1.6894   60.4557 H       1  ZINC000433961694    0.1400
     48 H48       -16.8588   -4.2133   59.1270 H       1  ZINC000433961694    0.1500
     49 H49       -15.5132   -4.8842   57.1780 H       1  ZINC000433961694    0.1400
@<TRIPOS>BOND
     1     1     2    1
     2     1    31    1
     3     1    32    1
     4     1    33    1
     5     2    30    1
     6     2     3    2
     7     3     4    1
     8     3    19    1
     9     4     5    2
    10     4     6   am
    11     6    18    1
    12     6     7    1
    13     7     8    1
    14     7    34    1
    15     7    35    1
    16     8     9    1
    17     8    36    1
    18     8    37    1
    19     9    10    1
    20     9    11    1
    21     9    18    1
    22    11    12    1
    23    12    17   ar
    24    12    13   ar
    25    13    14   ar
    26    13    38    1
    27    14    15   ar
    28    14    39    1
    29    15    16   ar
    30    16    17   ar
    31    16    40    1
    32    17    41    1
    33    18    42    1
    34    18    43    1
    35    19    20    1
    36    20    21    1
    37    20    30    2
    38    21    22    1
    39    21    44    1
    40    21    45    1
    41    22    23    1
    42    23    29   ar
    43    23    24   ar
    44    24    25   ar
    45    24    46    1
    46    25    26   ar
    47    25    47    1
    48    26    27    1
    49    26    28   ar
    50    28    29   ar
    51    28    48    1
    52    29    49    1
@<TRIPOS>SUBSTRUCTURE
     1 ZINC000433961694        1 TEMP              0 ****  ****    0 ROOT


##########                                Name:    ZINC000007167963
##########                DOCK_Rotatable_Bonds:                   8
##########                         Heavy_Atoms:                  25
##########                    Molecular_Weight:             378.433
##########                DOCK_Rotatable_Bonds:                   8
##########                       Formal_Charge:        -1.01328e-06
##########                     HBond_Acceptors:                  10
##########                        HBond_Donors:                   3
##########                         Heavy_Atoms:                  25
##########                          Grid_Score:          -30.710192
##########                     Grid_vdw_energy:          -30.646070
##########                      Grid_es_energy:           -0.064121
##########           Internal_energy_repulsive:            7.497207

@<TRIPOS>MOLECULE
ZINC000007167963
 39 41 1 0 0
SMALL
USER_CHARGES


@<TRIPOS>ATOM
      1 C1        -13.4432   -0.2544   55.5047 C.3     1  ZINC000007167963   -0.0800
      2 C2        -12.7381   -1.2769   54.6512 C.2     1  ZINC000007167963    0.0900
      3 C3        -12.7766   -2.6256   54.8298 C.2     1  ZINC000007167963   -0.1500
      4 C4        -13.5056   -3.3663   55.8807 C.2     1  ZINC000007167963    0.2600
      5 N5        -13.6729   -4.6649   55.9408 N.2     1  ZINC000007167963   -0.2700
      6 N6        -14.3556   -4.9602   56.9905 N.2     1  ZINC000007167963   -0.2800
      7 C7        -14.6517   -3.8615   57.6426 C.2     1  ZINC000007167963    0.1200
      8 S8        -15.5724   -3.7543   59.1411 S.3     1  ZINC000007167963    0.1500
      9 C9        -15.2116   -2.0436   59.6099 C.3     1  ZINC000007167963   -0.1200
     10 H10       -15.2470   -1.4090   58.7245 H       1  ZINC000007167963    0.1400
     11 C11       -16.2514   -1.5627   60.6240 C.3     1  ZINC000007167963   -0.1500
     12 C12       -13.8381   -1.9706   60.2258 C.2     1  ZINC000007167963    0.5300
     13 O13       -13.6360   -2.4600   61.3169 O.2     1  ZINC000007167963   -0.4900
     14 N14       -12.8344   -1.3614   59.5639 N.am    1  ZINC000007167963   -0.6100
     15 C15       -11.5702   -1.2957   60.1299 C.2     1  ZINC000007167963    0.0800
     16 C16       -10.4675   -1.9556   59.6529 C.2     1  ZINC000007167963   -0.2400
     17 C17       -10.4893   -2.8228   58.4708 C.2     1  ZINC000007167963    0.5900
     18 N18       -10.3204   -4.1529   58.6076 N.am    1  ZINC000007167963   -0.8400
     19 O19       -10.6598   -2.3415   57.3660 O.2     1  ZINC000007167963   -0.5600
     20 C20        -9.2799   -1.7044   60.4394 C.2     1  ZINC000007167963   -0.0900
     21 C21        -9.4946   -0.8885   61.4617 C.2     1  ZINC000007167963   -0.2800
     22 S22       -11.1726   -0.3777   61.5098 S.3     1  ZINC000007167963    0.3000
     23 O23       -14.1174   -2.8301   56.9595 O.3     1  ZINC000007167963   -0.2000
     24 C24       -11.9440   -3.1921   53.7607 C.2     1  ZINC000007167963   -0.1800
     25 C25       -11.4902   -2.1463   53.0508 C.2     1  ZINC000007167963   -0.0300
     26 O26       -11.9712   -1.0129   53.5837 O.3     1  ZINC000007167963   -0.1700
     27 H27       -13.2347    0.7446   55.1216 H       1  ZINC000007167963    0.0800
     28 H28       -14.5174   -0.4369   55.4776 H       1  ZINC000007167963    0.1000
     29 H29       -13.0873   -0.3310   56.5321 H       1  ZINC000007167963    0.1000
     30 H30       -17.2449   -1.6155   60.1786 H       1  ZINC000007167963    0.0900
     31 H31       -16.2160   -2.1973   61.5095 H       1  ZINC000007167963    0.0800
     32 H32       -16.0342   -0.5326   60.9063 H       1  ZINC000007167963    0.0800
     33 H33       -12.9965   -0.9689   58.6918 H       1  ZINC000007167963    0.4400
     34 H34       -10.3337   -4.7264   57.8253 H       1  ZINC000007167963    0.4000
     35 H35       -10.1857   -4.5368   59.4881 H       1  ZINC000007167963    0.4100
     36 H36        -8.3163   -2.1381   60.2167 H       1  ZINC000007167963    0.1500
     37 H37        -8.7384   -0.5773   62.1672 H       1  ZINC000007167963    0.1700
     38 H38       -11.7380   -4.2372   53.5823 H       1  ZINC000007167963    0.1600
     39 H39       -10.8449   -2.2081   52.1869 H       1  ZINC000007167963    0.2200
@<TRIPOS>BOND
     1     1     2    1
     2     1    27    1
     3     1    28    1
     4     1    29    1
     5     2    26    1
     6     2     3    2
     7     3     4    1
     8     3    24    1
     9     4    23    1
    10     4     5    2
    11     5     6    1
    12     6     7    2
    13     7     8    1
    14     7    23    1
    15     8     9    1
    16     9    10    1
    17     9    11    1
    18     9    12    1
    19    11    30    1
    20    11    31    1
    21    11    32    1
    22    12    13    2
    23    12    14   am
    24    14    15    1
    25    14    33    1
    26    15    22    1
    27    15    16    2
    28    16    17    1
    29    16    20    1
    30    17    18   am
    31    17    19    2
    32    18    34    1
    33    18    35    1
    34    20    21    2
    35    20    36    1
    36    21    22    1
    37    21    37    1
    38    24    25    2
    39    24    38    1
    40    25    26    1
    41    25    39    1
@<TRIPOS>SUBSTRUCTURE
     1 ZINC000007167963        1 TEMP              0 ****  ****    0 ROOT


##########                                Name:    ZINC001400108193
##########                DOCK_Rotatable_Bonds:                   9
##########                         Heavy_Atoms:                  25
##########                    Molecular_Weight:              344.41
##########                DOCK_Rotatable_Bonds:                   9
##########                       Formal_Charge:           0.0200001
##########                     HBond_Acceptors:                   6
##########                        HBond_Donors:                   2
##########                         Heavy_Atoms:                  25
##########                          Grid_Score:          -30.708063
##########                     Grid_vdw_energy:          -30.636597
##########                      Grid_es_energy:           -0.071466
##########           Internal_energy_repulsive:            5.754915

@<TRIPOS>MOLECULE
ZINC001400108193
 49 50 1 0 0
SMALL
USER_CHARGES


@<TRIPOS>ATOM
      1 C1         -9.5856    0.4784   62.3785 C.3     1  ZINC001400108193   -0.0800
      2 C2         -9.9377   -0.0013   60.9939 C.2     1  ZINC001400108193   -0.0100
      3 C3        -10.0250   -1.2852   60.6141 C.2     1  ZINC001400108193   -0.1600
      4 C4        -10.3912   -1.2615   59.1904 C.2     1  ZINC001400108193   -0.2300
      5 C5        -10.6089   -2.4209   58.3071 C.2     1  ZINC001400108193    0.5900
      6 O6        -10.4708   -3.5492   58.7395 O.2     1  ZINC001400108193   -0.5300
      7 N7        -10.9612   -2.2309   57.0201 N.am    1  ZINC001400108193   -0.7300
      8 C8        -11.1759   -3.3834   56.1416 C.3     1  ZINC001400108193    0.1100
      9 C9        -11.9977   -2.9516   54.9255 C.3     1  ZINC001400108193    0.1300
     10 H10       -11.9669   -3.7358   54.1691 H       1  ZINC001400108193    0.1000
     11 C11       -13.4476   -2.7089   55.3497 C.3     1  ZINC001400108193   -0.1600
     12 N12       -11.4379   -1.7164   54.3714 N.am    1  ZINC001400108193   -0.7300
     13 C13       -11.6725   -1.3876   53.0856 C.2     1  ZINC001400108193    0.5200
     14 O14       -12.3485   -2.1135   52.3877 O.2     1  ZINC001400108193   -0.5100
     15 C15       -11.0951   -0.1179   52.5150 C.3     1  ZINC001400108193    0.0700
     16 H16       -10.6245   -0.3318   51.5554 H       1  ZINC001400108193    0.1000
     17 C17       -12.2136    0.9072   52.3172 C.3     1  ZINC001400108193   -0.1800
     18 O18       -10.1198    0.4092   53.4167 O.3     1  ZINC001400108193   -0.2800
     19 C19        -8.9138    0.7498   52.8910 C.ar    1  ZINC001400108193    0.1200
     20 C20        -8.0741   -0.2320   52.3853 C.ar    1  ZINC001400108193   -0.2100
     21 C21        -6.8489    0.1168   51.8511 C.ar    1  ZINC001400108193   -0.0800
     22 C22        -6.4569    1.4425   51.8248 C.ar    1  ZINC001400108193   -0.1200
     23 C23        -5.1171    1.8195   51.2470 C.3     1  ZINC001400108193   -0.1100
     24 C24        -7.2943    2.4234   52.3233 C.ar    1  ZINC001400108193   -0.0800
     25 C25        -8.5206    2.0798   52.8586 C.ar    1  ZINC001400108193   -0.1400
     26 C26       -10.4815    0.0581   58.8565 C.2     1  ZINC001400108193    0.0200
     27 O27       -10.2140    0.7877   59.9439 O.3     1  ZINC001400108193   -0.1700
     28 H28        -8.5054    0.6020   62.4564 H       1  ZINC001400108193    0.0900
     29 H29       -10.0752    1.4337   62.5676 H       1  ZINC001400108193    0.0800
     30 H30        -9.9214   -0.2537   63.1130 H       1  ZINC001400108193    0.0900
     31 H31        -9.8602   -2.1578   61.2288 H       1  ZINC001400108193    0.1600
     32 H32       -11.0725   -1.3310   56.6756 H       1  ZINC001400108193    0.4000
     33 H33       -11.7131   -4.1601   56.6860 H       1  ZINC001400108193    0.0800
     34 H34       -10.2130   -3.7719   55.8101 H       1  ZINC001400108193    0.0900
     35 H35       -14.0330   -2.4014   54.4834 H       1  ZINC001400108193    0.0700
     36 H36       -13.8641   -3.6280   55.7620 H       1  ZINC001400108193    0.0700
     37 H37       -13.4784   -1.9247   56.1062 H       1  ZINC001400108193    0.0600
     38 H38       -10.8982   -1.1352   54.9298 H       1  ZINC001400108193    0.4000
     39 H39       -12.9575    0.5052   51.6295 H       1  ZINC001400108193    0.0800
     40 H40       -12.6841    1.1212   53.2769 H       1  ZINC001400108193    0.0800
     41 H41       -11.7959    1.8256   51.9046 H       1  ZINC001400108193    0.0800
     42 H42        -8.3779   -1.2681   52.4099 H       1  ZINC001400108193    0.1300
     43 H43        -6.1946   -0.6471   51.4577 H       1  ZINC001400108193    0.1300
     44 H44        -5.2244    2.0193   50.1809 H       1  ZINC001400108193    0.0700
     45 H45        -4.7436    2.7125   51.7482 H       1  ZINC001400108193    0.0700
     46 H46        -4.4143    0.9994   51.3941 H       1  ZINC001400108193    0.0700
     47 H47        -6.9876    3.4586   52.2979 H       1  ZINC001400108193    0.1300
     48 H48        -9.1726    2.8460   53.2513 H       1  ZINC001400108193    0.1300
     49 H49       -10.7298    0.4471   57.8800 H       1  ZINC001400108193    0.2100
@<TRIPOS>BOND
     1     1     2    1
     2     1    28    1
     3     1    29    1
     4     1    30    1
     5     2    27    1
     6     2     3    2
     7     3     4    1
     8     3    31    1
     9     4     5    1
    10     4    26    2
    11     5     6    2
    12     5     7   am
    13     7     8    1
    14     7    32    1
    15     8     9    1
    16     8    33    1
    17     8    34    1
    18     9    10    1
    19     9    11    1
    20     9    12    1
    21    11    35    1
    22    11    36    1
    23    11    37    1
    24    12    13   am
    25    12    38    1
    26    13    14    2
    27    13    15    1
    28    15    16    1
    29    15    17    1
    30    15    18    1
    31    17    39    1
    32    17    40    1
    33    17    41    1
    34    18    19    1
    35    19    25   ar
    36    19    20   ar
    37    20    21   ar
    38    20    42    1
    39    21    22   ar
    40    21    43    1
    41    22    23    1
    42    22    24   ar
    43    23    44    1
    44    23    45    1
    45    23    46    1
    46    24    25   ar
    47    24    47    1
    48    25    48    1
    49    26    27    1
    50    26    49    1
@<TRIPOS>SUBSTRUCTURE
     1 ZINC001400108193        1 TEMP              0 ****  ****    0 ROOT


##########                                Name:    ZINC000286156371
##########                DOCK_Rotatable_Bonds:                   7
##########                         Heavy_Atoms:                  25
##########                    Molecular_Weight:             350.418
##########                DOCK_Rotatable_Bonds:                   7
##########                       Formal_Charge:          0.00999908
##########                     HBond_Acceptors:                   8
##########                        HBond_Donors:                   2
##########                         Heavy_Atoms:                  25
##########                          Grid_Score:          -30.678661
##########                     Grid_vdw_energy:          -30.141220
##########                      Grid_es_energy:           -0.537441
##########           Internal_energy_repulsive:           41.976639

@<TRIPOS>MOLECULE
ZINC000286156371
 51 53 1 0 0
SMALL
USER_CHARGES


@<TRIPOS>ATOM
      1 C1         -9.4029    3.0989   55.6078 C.3     1  <0>        -0.1800
      2 C2         -8.8819    2.2387   56.7609 C.3     1  <0>         0.1400
      3 C3         -7.4442    1.8065   56.4656 C.3     1  <0>        -0.1800
      4 C4         -8.9144    3.0501   58.0575 C.3     1  <0>        -0.1400
      5 O5         -9.7209    1.0625   56.9047 O.3     1  <0>        -0.3600
      6 C6         -9.3965    0.1960   57.8829 C.2     1  <0>         0.6800
      7 O7         -8.4382    0.4168   58.5967 O.2     1  <0>        -0.5600
      8 N8        -10.1344   -0.9160   58.0702 N.am    1  <0>        -0.5800
      9 C9        -11.3170   -1.3056   57.2807 C.3     1  <0>         0.0700
     10 C10       -11.4086   -2.8441   57.4365 C.3     1  <0>         0.0900
     11 H11       -12.4307   -3.1917   57.2864 H       1  <0>         0.0900
     12 O12       -10.5096   -3.5038   56.5429 O.3     1  <0>        -0.5500
     13 C13       -10.9673   -3.0346   58.9118 C.3     1  <0>        -0.1200
     14 C14        -9.8895   -1.9449   59.0915 C.3     1  <0>         0.1500
     15 H15        -8.8984   -2.3784   58.9580 H       1  <0>         0.1100
     16 C16       -10.0013   -1.3351   60.4650 C.2     1  <0>         0.5200
     17 O17       -11.0199   -1.4730   61.1087 O.2     1  <0>        -0.4900
     18 N18        -8.9693   -0.6363   60.9781 N.am    1  <0>        -0.6300
     19 C19        -9.0725   -0.0706   62.2562 C.2     1  <0>         0.3000
     20 N20        -9.7101    1.0374   62.5601 N.2     1  <0>        -0.3200
     21 N21        -9.5755    1.2528   63.9335 N.pl3   1  <0>        -0.3600
     22 C22       -10.1221    2.3631   64.7196 C.3     1  <0>         0.1400
     23 C23       -10.1041    1.9746   66.2017 C.3     1  <0>        -0.1400
     24 C24        -8.7106    1.4651   66.5812 C.3     1  <0>        -0.1300
     25 C25        -8.4665    0.1109   65.9025 C.3     1  <0>        -0.0600
     26 C26        -8.8368    0.2411   64.4455 C.2     1  <0>         0.0900
     27 C27        -8.5171   -0.5931   63.4373 C.2     1  <0>        -0.2600
     28 H28        -9.3797    2.5209   54.6840 H       1  <0>         0.0900
     29 H29       -10.4271    3.4067   55.8182 H       1  <0>         0.0600
     30 H30        -8.7730    3.9819   55.4998 H       1  <0>         0.0700
     31 H31        -6.8143    2.6895   56.3576 H       1  <0>         0.0700
     32 H32        -7.0729    1.1938   57.2871 H       1  <0>         0.0600
     33 H33        -7.4210    1.2285   55.5417 H       1  <0>         0.0900
     34 H34        -9.9387    3.3580   58.2680 H       1  <0>         0.0700
     35 H35        -8.5432    2.4373   58.8790 H       1  <0>         0.0700
     36 H36        -8.2845    3.9331   57.9495 H       1  <0>         0.0800
     37 H37       -12.2129   -0.8299   57.6798 H       1  <0>         0.0800
     38 H38       -11.1788   -1.0379   56.2332 H       1  <0>         0.0900
     39 H39       -10.6745   -3.3152   55.6089 H       1  <0>         0.3900
     40 H40       -11.8050   -2.8692   59.5894 H       1  <0>         0.1000
     41 H41       -10.5390   -4.0258   59.0612 H       1  <0>         0.1100
     42 H42        -8.1550   -0.5250   60.4628 H       1  <0>         0.4200
     43 H43        -9.5118    3.2534   64.5677 H       1  <0>         0.0800
     44 H44       -11.1469    2.5626   64.4065 H       1  <0>         0.0900
     45 H45       -10.3497    2.8462   66.8085 H       1  <0>         0.0900
     46 H46       -10.8388    1.1894   66.3802 H       1  <0>         0.0800
     47 H47        -7.9583    2.1802   66.2484 H       1  <0>         0.0700
     48 H48        -8.6482    1.3467   67.6630 H       1  <0>         0.0800
     49 H49        -7.4148   -0.1610   65.9918 H       1  <0>         0.0900
     50 H50        -9.0858   -0.6530   66.3726 H       1  <0>         0.0900
     51 H51        -7.9362   -1.4996   63.5209 H       1  <0>         0.1700
@<TRIPOS>BOND
     1     1     2    1
     2     1    28    1
     3     1    29    1
     4     1    30    1
     5     2     3    1
     6     2     4    1
     7     2     5    1
     8     3    31    1
     9     3    32    1
    10     3    33    1
    11     4    34    1
    12     4    35    1
    13     4    36    1
    14     5     6    1
    15     6     7    2
    16     6     8   am
    17     8    14    1
    18     8     9    1
    19     9    10    1
    20     9    37    1
    21     9    38    1
    22    10    11    1
    23    10    12    1
    24    10    13    1
    25    12    39    1
    26    13    14    1
    27    13    40    1
    28    13    41    1
    29    14    15    1
    30    14    16    1
    31    16    17    2
    32    16    18   am
    33    18    19    1
    34    18    42    1
    35    19    27    1
    36    19    20    2
    37    20    21    1
    38    21    26    1
    39    21    22    1
    40    22    23    1
    41    22    43    1
    42    22    44    1
    43    23    24    1
    44    23    45    1
    45    23    46    1
    46    24    25    1
    47    24    47    1
    48    24    48    1
    49    25    26    1
    50    25    49    1
    51    25    50    1
    52    26    27    2
    53    27    51    1
@<TRIPOS>SUBSTRUCTURE
     1 <0>         1 TEMP              0 ****  ****    0 ROOT


##########                                Name:    ZINC000437192871
##########                DOCK_Rotatable_Bonds:                   9
##########                         Heavy_Atoms:                  28
##########                    Molecular_Weight:             423.298
##########                DOCK_Rotatable_Bonds:                   9
##########                       Formal_Charge:         -8.9407e-08
##########                     HBond_Acceptors:                   9
##########                        HBond_Donors:                   1
##########                         Heavy_Atoms:                  28
##########                          Grid_Score:          -30.673817
##########                     Grid_vdw_energy:          -28.538523
##########                      Grid_es_energy:           -2.135293
##########           Internal_energy_repulsive:           12.211861

@<TRIPOS>MOLECULE
ZINC000437192871
 48 50 1 0 0
SMALL
USER_CHARGES


@<TRIPOS>ATOM
      1 C1        -14.1286   -4.6128   55.9451 C.3     1  ZINC000437192871   -0.1700
      2 C2        -13.1036   -3.5575   55.5247 C.3     1  ZINC000437192871    0.1300
      3 N3        -12.1493   -3.3418   56.6152 N.pl3   1  ZINC000437192871   -0.3600
      4 C4        -11.5234   -2.1819   56.9046 C.2     1  ZINC000437192871    0.0700
      5 C5        -10.7288   -2.3987   57.9782 C.2     1  ZINC000437192871   -0.2700
      6 C6         -9.8443   -1.3783   58.6471 C.3     1  ZINC000437192871    0.1900
      7 N7        -10.6276   -0.6194   59.6253 N.am    1  ZINC000437192871   -0.6000
      8 C8        -11.1217    0.7181   59.2890 C.3     1  ZINC000437192871    0.1100
      9 C9         -9.9947    1.7376   59.4662 C.3     1  ZINC000437192871    0.0600
     10 O10       -10.4649    3.0361   59.0993 O.3     1  ZINC000437192871   -0.5600
     11 C11       -10.8936   -1.1518   60.8345 C.2     1  ZINC000437192871    0.6000
     12 O12       -10.4836   -2.2623   61.1136 O.2     1  ZINC000437192871   -0.5000
     13 C13       -11.6810   -0.3889   61.8179 C.2     1  ZINC000437192871   -0.2200
     14 C14       -11.2321    0.4112   62.8381 C.2     1  ZINC000437192871    0.0100
     15 C15        -9.7958    0.6980   63.1930 C.3     1  ZINC000437192871   -0.0800
     16 O16       -12.3167    0.8863   63.4545 O.3     1  ZINC000437192871    0.1100
     17 N17       -13.3515    0.5005   62.9687 N.2     1  ZINC000437192871   -0.3200
     18 C18       -13.1502   -0.2908   61.9456 C.2     1  ZINC000437192871    0.0800
     19 C19       -14.1747   -0.9528   61.1026 C.ar    1  ZINC000437192871   -0.0200
     20 C20       -14.2823   -2.3423   61.0946 C.ar    1  ZINC000437192871   -0.0700
     21 C21       -15.2377   -2.9537   60.3089 C.ar    1  ZINC000437192871   -0.1000
     22 C22       -16.0892   -2.1898   59.5289 C.ar    1  ZINC000437192871   -0.0100
     23 Cl23      -17.2891   -2.9661   58.5432 Cl      1  ZINC000437192871   -0.0500
     24 C24       -15.9875   -0.8092   59.5324 C.ar    1  ZINC000437192871   -0.1100
     25 C25       -15.0385   -0.1868   60.3191 C.ar    1  ZINC000437192871    0.0000
     26 Cl26      -14.9118    1.5446   60.3234 Cl      1  ZINC000437192871   -0.0300
     27 C27       -10.8741   -3.7370   58.3579 C.2     1  ZINC000437192871    0.0600
     28 N28       -11.7300   -4.3018   57.5452 N.2     1  ZINC000437192871   -0.2900
     29 H29       -14.8386   -4.7732   55.1338 H       1  ZINC000437192871    0.0800
     30 H30       -13.6159   -5.5482   56.1696 H       1  ZINC000437192871    0.0600
     31 H31       -14.6615   -4.2688   56.8316 H       1  ZINC000437192871    0.0700
     32 H32       -12.5708   -3.9015   54.6382 H       1  ZINC000437192871    0.1000
     33 H33       -13.6163   -2.6221   55.3003 H       1  ZINC000437192871    0.0900
     34 H34       -11.6362   -1.2479   56.3741 H       1  ZINC000437192871    0.1600
     35 H35        -9.0233   -1.8856   59.1539 H       1  ZINC000437192871    0.0900
     36 H36        -9.4427   -0.6976   57.8964 H       1  ZINC000437192871    0.0800
     37 H37       -11.4628    0.7298   58.2538 H       1  ZINC000437192871    0.1000
     38 H38       -11.9512    0.9753   59.9478 H       1  ZINC000437192871    0.1000
     39 H39        -9.6747    1.7480   60.5081 H       1  ZINC000437192871    0.0600
     40 H40        -9.1529    1.4629   58.8304 H       1  ZINC000437192871    0.0500
     41 H41        -9.8011    3.7339   59.1863 H       1  ZINC000437192871    0.3800
     42 H42        -9.4827    1.6275   62.7173 H       1  ZINC000437192871    0.1000
     43 H43        -9.7009    0.7934   64.2746 H       1  ZINC000437192871    0.0900
     44 H44        -9.1650   -0.1193   62.8435 H       1  ZINC000437192871    0.0900
     45 H45       -13.6187   -2.9396   61.7022 H       1  ZINC000437192871    0.1600
     46 H46       -15.3213   -4.0305   60.3020 H       1  ZINC000437192871    0.1500
     47 H47       -16.6540   -0.2178   58.9222 H       1  ZINC000437192871    0.1500
     48 H48       -10.3706   -4.2195   59.1825 H       1  ZINC000437192871    0.1800
@<TRIPOS>BOND
     1     1     2    1
     2     1    29    1
     3     1    30    1
     4     1    31    1
     5     2     3    1
     6     2    32    1
     7     2    33    1
     8     3    28    1
     9     3     4    1
    10     4     5    2
    11     4    34    1
    12     5     6    1
    13     5    27    1
    14     6     7    1
    15     6    35    1
    16     6    36    1
    17     7     8    1
    18     7    11   am
    19     8     9    1
    20     8    37    1
    21     8    38    1
    22     9    10    1
    23     9    39    1
    24     9    40    1
    25    10    41    1
    26    11    12    2
    27    11    13    1
    28    13    18    1
    29    13    14    2
    30    14    15    1
    31    14    16    1
    32    15    42    1
    33    15    43    1
    34    15    44    1
    35    16    17    1
    36    17    18    2
    37    18    19    1
    38    19    25   ar
    39    19    20   ar
    40    20    21   ar
    41    20    45    1
    42    21    22   ar
    43    21    46    1
    44    22    23    1
    45    22    24   ar
    46    24    25   ar
    47    24    47    1
    48    25    26    1
    49    27    28    2
    50    27    48    1
@<TRIPOS>SUBSTRUCTURE
     1 ZINC000437192871        1 TEMP              0 ****  ****    0 ROOT


##########                                Name:    ZINC000288921983
##########                DOCK_Rotatable_Bonds:                   6
##########                         Heavy_Atoms:                  26
##########                    Molecular_Weight:             356.428
##########                DOCK_Rotatable_Bonds:                   6
##########                       Formal_Charge:           0.0199997
##########                     HBond_Acceptors:                   8
##########                        HBond_Donors:                   1
##########                         Heavy_Atoms:                  26
##########                          Grid_Score:          -30.630579
##########                     Grid_vdw_energy:          -30.614868
##########                      Grid_es_energy:           -0.015712
##########           Internal_energy_repulsive:           60.407970

@<TRIPOS>MOLECULE
ZINC000288921983
 50 53 1 0 0
SMALL
USER_CHARGES


@<TRIPOS>ATOM
      1 C1         -4.8480    2.9622   49.6035 C.3     1  ZINC000288921983   -0.1400
      2 C2         -5.1023    2.9870   51.1120 C.3     1  ZINC000288921983   -0.0500
      3 C3         -6.2647    2.0859   51.4404 C.ar    1  ZINC000288921983    0.3000
      4 N4         -6.0364    0.8116   51.6877 N.ar    1  ZINC000288921983   -0.5000
      5 C5         -7.0294   -0.0119   51.9798 C.ar    1  ZINC000288921983    0.1300
      6 C6         -8.3290    0.4857   52.0236 C.ar    1  ZINC000288921983    0.0500
      7 N7         -9.4088   -0.3513   52.3292 N.am    1  ZINC000288921983   -0.6700
      8 C8        -10.1815   -0.0900   53.4021 C.2     1  ZINC000288921983    0.7100
      9 O9         -9.9406    0.8726   54.1047 O.2     1  ZINC000288921983   -0.5500
     10 N10       -11.2210   -0.8958   53.6962 N.am    1  ZINC000288921983   -0.6200
     11 C11       -11.5244   -2.0628   52.8568 C.3     1  ZINC000288921983    0.1100
     12 C12       -11.5937   -3.3068   53.7482 C.3     1  ZINC000288921983   -0.1400
     13 C13       -12.5993   -3.0655   54.8764 C.3     1  ZINC000288921983   -0.1200
     14 C14       -12.1355   -1.8839   55.7313 C.3     1  ZINC000288921983   -0.1300
     15 C15       -12.0687   -0.6273   54.8658 C.3     1  ZINC000288921983    0.2700
     16 H16       -13.0709   -0.3612   54.5300 H       1  ZINC000288921983    0.1100
     17 C17       -11.4864    0.5081   55.6678 C.2     1  ZINC000288921983    0.1700
     18 N18       -11.8492    1.7579   55.6102 N.2     1  ZINC000288921983   -0.2500
     19 N19       -11.1387    2.4469   56.4325 N.2     1  ZINC000288921983   -0.2700
     20 C20       -10.2987    1.6600   57.0426 C.2     1  ZINC000288921983    0.1800
     21 C21        -9.2881    2.0691   58.0830 C.3     1  ZINC000288921983   -0.0300
     22 C22        -9.3215    3.5696   58.4177 C.3     1  ZINC000288921983   -0.1200
     23 C23       -10.3673    3.2265   59.4917 C.3     1  ZINC000288921983   -0.1400
     24 C24        -9.7537    1.8169   59.5267 C.3     1  ZINC000288921983   -0.1200
     25 O25       -10.5020    0.4159   56.5775 O.3     1  ZINC000288921983   -0.2200
     26 C26        -8.5264    1.8377   51.7561 C.ar    1  ZINC000288921983    0.1600
     27 N27        -7.4793    2.5962   51.4772 N.ar    1  ZINC000288921983   -0.5000
     28 H28        -4.0072    3.6140   49.3661 H       1  ZINC000288921983    0.0700
     29 H29        -4.6178    1.9437   49.2906 H       1  ZINC000288921983    0.0600
     30 H30        -5.7376    3.3112   49.0793 H       1  ZINC000288921983    0.0600
     31 H31        -4.2127    2.6381   51.6364 H       1  ZINC000288921983    0.0900
     32 H32        -5.3325    4.0055   51.4250 H       1  ZINC000288921983    0.0900
     33 H33        -6.8350   -1.0551   52.1809 H       1  ZINC000288921983    0.1700
     34 H34        -9.6009   -1.1193   51.7686 H       1  ZINC000288921983    0.4100
     35 H35       -12.4831   -1.9159   52.3594 H       1  ZINC000288921983    0.0800
     36 H36       -10.7395   -2.1908   52.1114 H       1  ZINC000288921983    0.0800
     37 H37       -11.9124   -4.1630   53.1537 H       1  ZINC000288921983    0.0900
     38 H38       -10.6099   -3.5046   54.1738 H       1  ZINC000288921983    0.0700
     39 H39       -13.5773   -2.8434   54.4498 H       1  ZINC000288921983    0.0700
     40 H40       -12.6687   -3.9583   55.4980 H       1  ZINC000288921983    0.0800
     41 H41       -12.8399   -1.7274   56.5483 H       1  ZINC000288921983    0.0900
     42 H42       -11.1467   -2.0951   56.1382 H       1  ZINC000288921983    0.0900
     43 H43        -8.2881    1.6891   57.8740 H       1  ZINC000288921983    0.1000
     44 H44        -8.3839    3.9468   58.8261 H       1  ZINC000288921983    0.1000
     45 H45        -9.7120    4.1886   57.6100 H       1  ZINC000288921983    0.0800
     46 H46       -10.2379    3.7822   60.4204 H       1  ZINC000288921983    0.0700
     47 H47       -11.3934    3.2471   59.1243 H       1  ZINC000288921983    0.1000
     48 H48       -10.4931    1.0208   59.6143 H       1  ZINC000288921983    0.0700
     49 H49        -8.9343    1.7149   60.2383 H       1  ZINC000288921983    0.1000
     50 H50        -9.5194    2.2617   51.7798 H       1  ZINC000288921983    0.1800
@<TRIPOS>BOND
     1     1     2    1
     2     1    28    1
     3     1    29    1
     4     1    30    1
     5     2     3    1
     6     2    31    1
     7     2    32    1
     8     3    27   ar
     9     3     4   ar
    10     4     5   ar
    11     5     6   ar
    12     5    33    1
    13     6     7    1
    14     6    26   ar
    15     7     8   am
    16     7    34    1
    17     8     9    2
    18     8    10   am
    19    10    15    1
    20    10    11    1
    21    11    12    1
    22    11    35    1
    23    11    36    1
    24    12    13    1
    25    12    37    1
    26    12    38    1
    27    13    14    1
    28    13    39    1
    29    13    40    1
    30    14    15    1
    31    14    41    1
    32    14    42    1
    33    15    16    1
    34    15    17    1
    35    17    25    1
    36    17    18    2
    37    18    19    1
    38    19    20    2
    39    20    21    1
    40    20    25    1
    41    21    24    1
    42    21    22    1
    43    21    43    1
    44    22    23    1
    45    22    44    1
    46    22    45    1
    47    23    24    1
    48    23    46    1
    49    23    47    1
    50    24    48    1
    51    24    49    1
    52    26    27   ar
    53    26    50    1
@<TRIPOS>SUBSTRUCTURE
     1 ZINC000288921983        1 TEMP              0 ****  ****    0 ROOT


##########                                Name:    ZINC001000186632
##########                DOCK_Rotatable_Bonds:                   7
##########                         Heavy_Atoms:                  23
##########                    Molecular_Weight:             342.379
##########                DOCK_Rotatable_Bonds:                   7
##########                       Formal_Charge:          -0.0100001
##########                     HBond_Acceptors:                  11
##########                        HBond_Donors:                   2
##########                         Heavy_Atoms:                  23
##########                          Grid_Score:          -30.621552
##########                     Grid_vdw_energy:          -29.699736
##########                      Grid_es_energy:           -0.921815
##########           Internal_energy_repulsive:            6.583002

@<TRIPOS>MOLECULE
ZINC001000186632
 41 43 1 0 0
SMALL
USER_CHARGES


@<TRIPOS>ATOM
      1 O1        -10.7916   -2.1958   53.0029 O.2     1  ZINC001000186632   -0.5200
      2 C2        -10.8262   -1.3385   53.8601 C.2     1  ZINC001000186632    0.5300
      3 C3        -10.4298    0.0767   53.5268 C.3     1  ZINC001000186632   -0.0500
      4 C4         -9.1032    0.0716   52.8117 C.2     1  ZINC001000186632    0.2400
      5 N5         -8.8427   -0.5627   51.6988 N.2     1  ZINC001000186632   -0.3000
      6 N6         -7.4991   -0.2989   51.3864 N.pl3   1  ZINC001000186632   -0.4800
      7 C7         -7.0332    0.4992   52.3627 C.2     1  ZINC001000186632    0.2700
      8 N8         -8.0074    0.7176   53.2081 N.2     1  ZINC001000186632   -0.5400
      9 N9        -11.2245   -1.6503   55.1093 N.am    1  ZINC001000186632   -0.7100
     10 C10       -11.6098   -3.0260   55.4333 C.3     1  ZINC001000186632    0.1100
     11 C11       -11.0950   -3.5080   56.8018 C.3     1  ZINC001000186632    0.1000
     12 N12       -12.3680   -2.9985   57.3476 N.am    1  ZINC001000186632   -0.6500
     13 C13       -12.7712   -2.5684   58.5597 C.2     1  ZINC001000186632    0.5100
     14 O14       -13.9137   -2.1945   58.7213 O.2     1  ZINC001000186632   -0.5100
     15 C15       -11.8026   -2.5521   59.7140 C.3     1  ZINC001000186632    0.1500
     16 N16       -11.1636   -1.2364   59.7968 N.am    1  ZINC001000186632   -0.9800
     17 C17       -11.7987    0.0594   59.5135 C.3     1  ZINC001000186632    0.0800
     18 C18       -11.1362    1.1688   60.3525 C.3     1  ZINC001000186632   -0.1300
     19 C19        -9.6102    0.9021   60.2056 C.3     1  ZINC001000186632   -0.6000
     20 S20        -9.5819   -0.9315   60.2375 S.o2    1  ZINC001000186632    2.5700
     21 O21        -9.4594   -1.4218   61.5656 O.2     1  ZINC001000186632   -0.9400
     22 O22        -8.7995   -1.4530   59.1720 O.2     1  ZINC001000186632   -0.9600
     23 C23       -13.0222   -3.1491   56.0334 C.3     1  ZINC001000186632    0.0900
     24 H24       -11.1875    0.5244   52.8836 H       1  ZINC001000186632    0.1300
     25 H25       -10.3449    0.6563   54.4459 H       1  ZINC001000186632    0.1200
     26 H26        -7.0053   -0.6276   50.6189 H       1  ZINC001000186632    0.4400
     27 H27        -6.0305    0.8941   52.4346 H       1  ZINC001000186632    0.2200
     28 H28       -11.2559   -0.9637   55.7939 H       1  ZINC001000186632    0.4100
     29 H29       -11.4166   -3.7245   54.6191 H       1  ZINC001000186632    0.1200
     30 H30       -10.9876   -4.5903   56.8745 H       1  ZINC001000186632    0.1000
     31 H31       -10.2174   -2.9675   57.1562 H       1  ZINC001000186632    0.0900
     32 H32       -12.3389   -2.7545   60.6412 H       1  ZINC001000186632    0.1100
     33 H33       -11.0413   -3.3168   59.5603 H       1  ZINC001000186632    0.1100
     34 H34       -11.6875    0.2924   58.4545 H       1  ZINC001000186632    0.0800
     35 H35       -12.8588    0.0038   59.7606 H       1  ZINC001000186632    0.0900
     36 H36       -11.3915    2.1510   59.9552 H       1  ZINC001000186632    0.1100
     37 H37       -11.4383    1.0887   61.3968 H       1  ZINC001000186632    0.1000
     38 H38        -9.2325    1.2886   59.2591 H       1  ZINC001000186632    0.1400
     39 H39        -9.0554    1.3167   61.0474 H       1  ZINC001000186632    0.1400
     40 H40       -13.6831   -2.3221   55.7743 H       1  ZINC001000186632    0.0900
     41 H41       -13.4810   -4.1260   55.8804 H       1  ZINC001000186632    0.1100
@<TRIPOS>BOND
     1     1     2    2
     2     2     3    1
     3     2     9   am
     4     3     4    1
     5     3    24    1
     6     3    25    1
     7     4     8    1
     8     4     5    2
     9     5     6    1
    10     6     7    1
    11     6    26    1
    12     7     8    2
    13     7    27    1
    14     9    10    1
    15     9    28    1
    16    10    23    1
    17    10    11    1
    18    10    29    1
    19    11    12    1
    20    11    30    1
    21    11    31    1
    22    12    13   am
    23    12    23    1
    24    13    14    2
    25    13    15    1
    26    15    16    1
    27    15    32    1
    28    15    33    1
    29    16    20   am
    30    16    17    1
    31    17    18    1
    32    17    34    1
    33    17    35    1
    34    18    19    1
    35    18    36    1
    36    18    37    1
    37    19    20    1
    38    19    38    1
    39    19    39    1
    40    20    21    2
    41    20    22    2
    42    23    40    1
    43    23    41    1
@<TRIPOS>SUBSTRUCTURE
     1 ZINC001000186632        1 TEMP              0 ****  ****    0 ROOT


##########                                Name:    ZINC001045463759
##########                DOCK_Rotatable_Bonds:                   6
##########                         Heavy_Atoms:                  24
##########                    Molecular_Weight:             336.385
##########                DOCK_Rotatable_Bonds:                   6
##########                       Formal_Charge:          1.3411e-07
##########                     HBond_Acceptors:                   7
##########                        HBond_Donors:                   2
##########                         Heavy_Atoms:                  24
##########                          Grid_Score:          -30.603983
##########                     Grid_vdw_energy:          -29.357569
##########                      Grid_es_energy:           -1.246414
##########           Internal_energy_repulsive:           10.609259

@<TRIPOS>MOLECULE
ZINC001045463759
 46 49 1 0 0
SMALL
USER_CHARGES


@<TRIPOS>ATOM
      1 O1         -3.2594    2.6441   55.0980 O.2     1  ZINC001045463759   -0.5100
      2 C2         -3.5042    2.5508   56.2822 C.2     1  ZINC001045463759    0.5400
      3 N3         -4.6890    2.9789   56.7611 N.am    1  ZINC001045463759   -0.7200
      4 C4         -5.6787    3.5627   55.8523 C.3     1  ZINC001045463759    0.1400
      5 H5         -5.6830    3.0072   54.9145 H       1  ZINC001045463759    0.1000
      6 C6         -5.3193    5.0243   55.5776 C.3     1  ZINC001045463759   -0.1300
      7 C7         -6.3528    5.6340   54.6285 C.3     1  ZINC001045463759   -0.1200
      8 C8         -7.7398    5.5618   55.2704 C.3     1  ZINC001045463759   -0.1200
      9 C9         -8.0993    4.1003   55.5451 C.3     1  ZINC001045463759   -0.1300
     10 C10        -7.0657    3.4906   56.4942 C.3     1  ZINC001045463759    0.1500
     11 H11        -7.0613    4.0462   57.4320 H       1  ZINC001045463759    0.0900
     12 N12        -7.4099    2.0911   56.7573 N.pl3   1  ZINC001045463759   -0.7100
     13 C13        -8.1763    1.7624   57.8635 C.ar    1  ZINC001045463759    0.4400
     14 C14        -8.8574    2.7526   58.5742 C.ar    1  ZINC001045463759   -0.3000
     15 C15        -9.6082    2.3742   59.6699 C.ar    1  ZINC001045463759    0.1800
     16 N16        -9.6577    1.0937   60.0087 N.ar    1  ZINC001045463759   -0.5600
     17 C17        -9.0033    0.1826   59.3172 C.ar    1  ZINC001045463759    0.4000
     18 C18        -9.0900   -1.2611   59.7410 C.3     1  ZINC001045463759   -0.1100
     19 C19       -10.4442   -1.7713   60.2376 C.3     1  ZINC001045463759   -0.1500
     20 C20        -9.9189   -2.2051   58.8677 C.3     1  ZINC001045463759   -0.1500
     21 N21        -8.2796    0.4979   58.2623 N.ar    1  ZINC001045463759   -0.5700
     22 C22        -2.4862    1.9502   57.2171 C.3     1  ZINC001045463759   -0.2000
     23 H23        -2.4214    0.8622   57.2053 H       1  ZINC001045463759    0.1500
     24 C24        -1.1920    2.7325   57.4491 C.3     1  ZINC001045463759   -0.1500
     25 C25        -2.2499    2.6576   58.5530 C.3     1  ZINC001045463759    0.2300
     26 F26        -2.9951    3.8128   58.8130 F       1  ZINC001045463759   -0.1400
     27 F27        -1.9667    1.8587   59.6659 F       1  ZINC001045463759   -0.1500
     28 H28        -4.8865    2.9007   57.7076 H       1  ZINC001045463759    0.4000
     29 H29        -5.3149    5.5798   56.5154 H       1  ZINC001045463759    0.0700
     30 H30        -4.3311    5.0757   55.1203 H       1  ZINC001045463759    0.0800
     31 H31        -6.0968    6.6753   54.4327 H       1  ZINC001045463759    0.0700
     32 H32        -6.3572    5.0785   53.6907 H       1  ZINC001045463759    0.0700
     33 H33        -7.7355    6.1173   56.2081 H       1  ZINC001045463759    0.0700
     34 H34        -8.4761    5.9962   54.5942 H       1  ZINC001045463759    0.0700
     35 H35        -9.0874    4.0488   56.0024 H       1  ZINC001045463759    0.0700
     36 H36        -8.1036    3.5447   54.6073 H       1  ZINC001045463759    0.0700
     37 H37        -7.1011    1.3946   56.1569 H       1  ZINC001045463759    0.4100
     38 H38        -8.7982    3.7887   58.2748 H       1  ZINC001045463759    0.1400
     39 H39       -10.1482    3.1127   60.2439 H       1  ZINC001045463759    0.1700
     40 H40        -8.1951   -1.6672   60.2124 H       1  ZINC001045463759    0.1300
     41 H41       -10.4405   -2.5133   61.0361 H       1  ZINC001045463759    0.1000
     42 H42       -11.2724   -1.0628   60.2578 H       1  ZINC001045463759    0.1100
     43 H43       -10.4014   -1.7820   57.9866 H       1  ZINC001045463759    0.1000
     44 H44        -9.5695   -3.2324   58.7648 H       1  ZINC001045463759    0.1000
     45 H45        -0.2758    2.1592   57.5905 H       1  ZINC001045463759    0.1400
     46 H46        -1.0769    3.6816   56.9256 H       1  ZINC001045463759    0.1300
@<TRIPOS>BOND
     1     1     2    2
     2     2     3   am
     3     2    22    1
     4     3     4    1
     5     3    28    1
     6     4     5    1
     7     4    10    1
     8     4     6    1
     9     6     7    1
    10     6    29    1
    11     6    30    1
    12     7     8    1
    13     7    31    1
    14     7    32    1
    15     8     9    1
    16     8    33    1
    17     8    34    1
    18     9    10    1
    19     9    35    1
    20     9    36    1
    21    10    11    1
    22    10    12    1
    23    12    13    1
    24    12    37    1
    25    13    21   ar
    26    13    14   ar
    27    14    15   ar
    28    14    38    1
    29    15    16   ar
    30    15    39    1
    31    16    17   ar
    32    17    18    1
    33    17    21   ar
    34    18    20    1
    35    18    19    1
    36    18    40    1
    37    19    20    1
    38    19    41    1
    39    19    42    1
    40    20    43    1
    41    20    44    1
    42    22    23    1
    43    22    25    1
    44    22    24    1
    45    24    25    1
    46    24    45    1
    47    24    46    1
    48    25    26    1
    49    25    27    1
@<TRIPOS>SUBSTRUCTURE
     1 ZINC001045463759        1 TEMP              0 ****  ****    0 ROOT


##########                                Name:    ZINC001077846158
##########                DOCK_Rotatable_Bonds:                   7
##########                         Heavy_Atoms:                  24
##########                    Molecular_Weight:             350.442
##########                DOCK_Rotatable_Bonds:                   7
##########                       Formal_Charge:          -0.0600002
##########                     HBond_Acceptors:                   8
##########                        HBond_Donors:                   2
##########                         Heavy_Atoms:                  24
##########                          Grid_Score:          -30.572937
##########                     Grid_vdw_energy:          -29.651423
##########                      Grid_es_energy:           -0.921515
##########           Internal_energy_repulsive:            6.685467

@<TRIPOS>MOLECULE
ZINC001077846158
 46 48 1 0 0
SMALL
USER_CHARGES


@<TRIPOS>ATOM
      1 C1        -13.1878   -0.3322   52.6788 C.3     1  ZINC001077846158   -0.0700
      2 C2        -11.7139   -0.6410   52.6207 C.2     1  ZINC001077846158    0.0100
      3 C3        -11.1277   -1.7849   53.0108 C.2     1  ZINC001077846158   -0.0500
      4 C4        -11.8189   -2.9944   53.5854 C.3     1  ZINC001077846158    0.1300
      5 N5        -12.3280   -2.6765   54.9263 N.3     1  ZINC001077846158   -0.5100
      6 C6        -13.4596   -3.5669   55.2909 C.3     1  ZINC001077846158    0.0000
      7 C7        -13.5049   -3.4676   56.8365 C.3     1  ZINC001077846158    0.1000
      8 H8        -14.0264   -2.5632   57.1498 H       1  ZINC001077846158    0.0800
      9 O9        -14.1231   -4.6263   57.3997 O.3     1  ZINC001077846158   -0.5600
     10 C10       -12.0096   -3.3984   57.2225 C.3     1  ZINC001077846158    0.1400
     11 H11       -11.6449   -4.3866   57.5025 H       1  ZINC001077846158    0.1100
     12 N12       -11.8121   -2.4534   58.3244 N.am    1  ZINC001077846158   -0.7000
     13 C13       -10.6189   -2.3845   58.9473 C.2     1  ZINC001077846158    0.6000
     14 O14        -9.7064   -3.1076   58.5954 O.2     1  ZINC001077846158   -0.5300
     15 C15       -10.4197   -1.4333   60.0538 C.2     1  ZINC001077846158    0.0100
     16 C16        -9.2655   -1.3426   60.7521 C.2     1  ZINC001077846158   -0.2300
     17 S17        -9.4348   -0.1278   61.9427 S.3     1  ZINC001077846158    0.2300
     18 C18       -11.0359    0.1889   61.4400 C.2     1  ZINC001077846158    0.0300
     19 C19       -11.9402    1.2247   62.0570 C.3     1  ZINC001077846158   -0.0200
     20 C20       -12.8921    1.7706   60.9909 C.3     1  ZINC001077846158   -0.1500
     21 C21       -12.7512    0.5860   63.1862 C.3     1  ZINC001077846158   -0.1500
     22 N22       -11.3607   -0.5757   60.4577 N.2     1  ZINC001077846158   -0.4500
     23 C23       -11.2895   -2.9025   55.9549 C.3     1  ZINC001077846158    0.0300
     24 O24        -9.8053   -1.6476   52.7913 O.3     1  ZINC001077846158   -0.2100
     25 C25        -9.6015   -0.4292   52.2730 C.2     1  ZINC001077846158    0.1800
     26 N26       -10.7492    0.1769   52.1638 N.2     1  ZINC001077846158   -0.4900
     27 H27       -13.6615   -0.6453   51.7483 H       1  ZINC001077846158    0.0800
     28 H28       -13.6387   -0.8680   53.5140 H       1  ZINC001077846158    0.0700
     29 H29       -13.3294    0.7398   52.8157 H       1  ZINC001077846158    0.0700
     30 H30       -12.6495   -3.2794   52.9396 H       1  ZINC001077846158    0.0600
     31 H31       -11.1106   -3.8202   53.6521 H       1  ZINC001077846158    0.1100
     32 H32       -14.3903   -3.2044   54.8546 H       1  ZINC001077846158    0.0900
     33 H33       -13.2596   -4.5913   54.9769 H       1  ZINC001077846158    0.0600
     34 H34       -14.2427   -5.3524   56.7724 H       1  ZINC001077846158    0.3900
     35 H35       -12.5400   -1.8775   58.6058 H       1  ZINC001077846158    0.4100
     36 H36        -8.3813   -1.9400   60.5850 H       1  ZINC001077846158    0.1900
     37 H37       -11.3380    2.0400   62.4582 H       1  ZINC001077846158    0.1000
     38 H38       -12.3143    2.2257   60.1864 H       1  ZINC001077846158    0.0600
     39 H39       -13.4942    0.9554   60.5896 H       1  ZINC001077846158    0.0600
     40 H40       -13.5462    2.5198   61.4372 H       1  ZINC001077846158    0.0700
     41 H41       -12.0730    0.1971   63.9456 H       1  ZINC001077846158    0.0600
     42 H42       -13.4053    1.3352   63.6324 H       1  ZINC001077846158    0.0700
     43 H43       -13.3533   -0.2293   62.7849 H       1  ZINC001077846158    0.0600
     44 H44       -10.5830   -3.6573   55.6097 H       1  ZINC001077846158    0.0600
     45 H45       -10.7666   -1.9696   56.1657 H       1  ZINC001077846158    0.0900
     46 H46        -8.6438   -0.0187   51.9886 H       1  ZINC001077846158    0.2500
@<TRIPOS>BOND
     1     1     2    1
     2     1    27    1
     3     1    28    1
     4     1    29    1
     5     2    26    1
     6     2     3    2
     7     3     4    1
     8     3    24    1
     9     4     5    1
    10     4    30    1
    11     4    31    1
    12     5    23    1
    13     5     6    1
    14     6     7    1
    15     6    32    1
    16     6    33    1
    17     7     8    1
    18     7     9    1
    19     7    10    1
    20     9    34    1
    21    10    11    1
    22    10    12    1
    23    10    23    1
    24    12    13   am
    25    12    35    1
    26    13    14    2
    27    13    15    1
    28    15    22    1
    29    15    16    2
    30    16    17    1
    31    16    36    1
    32    17    18    1
    33    18    19    1
    34    18    22    2
    35    19    20    1
    36    19    21    1
    37    19    37    1
    38    20    38    1
    39    20    39    1
    40    20    40    1
    41    21    41    1
    42    21    42    1
    43    21    43    1
    44    23    44    1
    45    23    45    1
    46    24    25    1
    47    25    26    2
    48    25    46    1
@<TRIPOS>SUBSTRUCTURE
     1 ZINC001077846158        1 TEMP              0 ****  ****    0 ROOT


##########                                Name:    ZINC000151820600
##########                DOCK_Rotatable_Bonds:                  10
##########                         Heavy_Atoms:                  25
##########                    Molecular_Weight:             388.915
##########                DOCK_Rotatable_Bonds:                  10
##########                       Formal_Charge:           0.0499998
##########                     HBond_Acceptors:                   8
##########                        HBond_Donors:                   2
##########                         Heavy_Atoms:                  25
##########                          Grid_Score:          -30.564339
##########                     Grid_vdw_energy:          -28.736746
##########                      Grid_es_energy:           -1.827593
##########           Internal_energy_repulsive:           57.250496

@<TRIPOS>MOLECULE
ZINC000151820600
 50 50 1 0 0
SMALL
USER_CHARGES


@<TRIPOS>ATOM
      1 C1         -8.9608    2.1005   64.6384 C.3     1  ZINC000151820600   -0.4900
      2 S2        -10.3321    1.7034   63.5193 S.o     1  ZINC000151820600    1.2500
      3 O3        -11.4748    1.3387   64.2812 O.2     1  ZINC000151820600   -0.8500
      4 C4         -9.7174    0.2534   62.6193 C.3     1  ZINC000151820600   -0.4500
      5 C5        -10.7766   -0.2122   61.6182 C.3     1  ZINC000151820600   -0.1100
      6 C6        -10.2587   -1.4361   60.8599 C.3     1  ZINC000151820600    0.1200
      7 N7        -11.2439   -1.8401   59.8538 N.am    1  ZINC000151820600   -0.7200
      8 C8        -10.8605   -2.5791   58.7939 C.2     1  ZINC000151820600    0.5200
      9 O9         -9.6995   -2.9085   58.6724 O.2     1  ZINC000151820600   -0.5200
     10 C10       -11.8742   -2.9962   57.7598 C.3     1  ZINC000151820600    0.1900
     11 H11       -11.6952   -4.0324   57.4727 H       1  ZINC000151820600    0.1300
     12 N12       -13.2225   -2.8705   58.3192 N.am    1  ZINC000151820600   -0.6900
     13 C13       -14.2170   -3.6582   57.8642 C.2     1  ZINC000151820600    0.6600
     14 O14       -13.9957   -4.4716   56.9891 O.2     1  ZINC000151820600   -0.5600
     15 O15       -15.4556   -3.5438   58.3794 O.3     1  ZINC000151820600   -0.3600
     16 C16       -15.6574   -2.5207   59.3897 C.3     1  ZINC000151820600    0.1400
     17 C17       -15.2970   -1.1520   58.8085 C.3     1  ZINC000151820600   -0.1800
     18 C18       -17.1233   -2.5188   59.8280 C.3     1  ZINC000151820600   -0.1400
     19 C19       -14.7645   -2.8131   60.5972 C.3     1  ZINC000151820600   -0.1800
     20 C20       -11.7488   -2.1101   56.5474 C.ar    1  ZINC000151820600   -0.1000
     21 C21       -11.7831   -0.7356   56.6895 C.ar    1  ZINC000151820600   -0.0900
     22 C22       -11.6676    0.0780   55.5776 C.ar    1  ZINC000151820600   -0.1000
     23 C23       -11.5183   -0.4826   54.3233 C.ar    1  ZINC000151820600   -0.1000
     24 C24       -11.4839   -1.8586   54.1804 C.ar    1  ZINC000151820600   -0.0300
     25 Cl25      -11.2958   -2.5635   52.6052 Cl      1  ZINC000151820600   -0.0600
     26 C26       -11.5939   -2.6719   55.2939 C.ar    1  ZINC000151820600   -0.0900
     27 H27        -8.7690    1.2509   65.2939 H       1  ZINC000151820600    0.0800
     28 H28        -8.0665    2.3180   64.0543 H       1  ZINC000151820600    0.1100
     29 H29        -9.2228    2.9712   65.2395 H       1  ZINC000151820600    0.1100
     30 H30        -8.8042    0.5170   62.0857 H       1  ZINC000151820600    0.1200
     31 H31        -9.5068   -0.5500   63.3252 H       1  ZINC000151820600    0.0900
     32 H32       -11.6901   -0.4750   62.1515 H       1  ZINC000151820600    0.0800
     33 H33       -10.9866    0.5908   60.9116 H       1  ZINC000151820600    0.0900
     34 H34        -9.3181   -1.1877   60.3683 H       1  ZINC000151820600    0.0800
     35 H35       -10.0973   -2.2558   61.5601 H       1  ZINC000151820600    0.0700
     36 H36       -12.1722   -1.5757   59.9503 H       1  ZINC000151820600    0.4000
     37 H37       -13.3994   -2.2203   59.0170 H       1  ZINC000151820600    0.4200
     38 H38       -15.9332   -0.9437   57.9482 H       1  ZINC000151820600    0.0600
     39 H39       -15.4486   -0.3839   59.5669 H       1  ZINC000151820600    0.0700
     40 H40       -14.2527   -1.1534   58.4964 H       1  ZINC000151820600    0.0900
     41 H41       -17.3800   -3.4938   60.2420 H       1  ZINC000151820600    0.0700
     42 H42       -17.2748   -1.7507   60.5863 H       1  ZINC000151820600    0.0800
     43 H43       -17.7595   -2.3105   58.9676 H       1  ZINC000151820600    0.0700
     44 H44       -13.7202   -2.8144   60.2850 H       1  ZINC000151820600    0.0900
     45 H45       -14.9160   -2.0450   61.3556 H       1  ZINC000151820600    0.0700
     46 H46       -15.0212   -3.7882   61.0113 H       1  ZINC000151820600    0.0600
     47 H47       -11.9005   -0.2971   57.6694 H       1  ZINC000151820600    0.1300
     48 H48       -11.6944    1.1519   55.6892 H       1  ZINC000151820600    0.1400
     49 H49       -11.4289    0.1530   53.4548 H       1  ZINC000151820600    0.1400
     50 H50       -11.5670   -3.7459   55.1830 H       1  ZINC000151820600    0.1400
@<TRIPOS>BOND
     1     1     2    1
     2     1    27    1
     3     1    28    1
     4     1    29    1
     5     2     3    2
     6     2     4    1
     7     4     5    1
     8     4    30    1
     9     4    31    1
    10     5     6    1
    11     5    32    1
    12     5    33    1
    13     6     7    1
    14     6    34    1
    15     6    35    1
    16     7     8   am
    17     7    36    1
    18     8     9    2
    19     8    10    1
    20    10    11    1
    21    10    12    1
    22    10    20    1
    23    12    13   am
    24    12    37    1
    25    13    14    2
    26    13    15    1
    27    15    16    1
    28    16    17    1
    29    16    18    1
    30    16    19    1
    31    17    38    1
    32    17    39    1
    33    17    40    1
    34    18    41    1
    35    18    42    1
    36    18    43    1
    37    19    44    1
    38    19    45    1
    39    19    46    1
    40    20    26   ar
    41    20    21   ar
    42    21    22   ar
    43    21    47    1
    44    22    23   ar
    45    22    48    1
    46    23    24   ar
    47    23    49    1
    48    24    25    1
    49    24    26   ar
    50    26    50    1
@<TRIPOS>SUBSTRUCTURE
     1 ZINC000151820600        1 TEMP              0 ****  ****    0 ROOT


##########                                Name:    ZINC000053543817
##########                DOCK_Rotatable_Bonds:                   7
##########                         Heavy_Atoms:                  25
##########                    Molecular_Weight:             350.458
##########                DOCK_Rotatable_Bonds:                   7
##########                       Formal_Charge:           0.0199998
##########                     HBond_Acceptors:                   6
##########                        HBond_Donors:                   2
##########                         Heavy_Atoms:                  25
##########                          Grid_Score:          -30.560528
##########                     Grid_vdw_energy:          -29.678127
##########                      Grid_es_energy:           -0.882401
##########           Internal_energy_repulsive:           34.319653

@<TRIPOS>MOLECULE
ZINC000053543817
 55 56 1 0 0
SMALL
USER_CHARGES


@<TRIPOS>ATOM
      1 C1        -11.1040   -1.3882   52.3006 C.3     1  ZINC000053543817   -0.0700
      2 C2        -11.7287   -1.8330   53.5979 C.2     1  ZINC000053543817   -0.0200
      3 C3        -11.4673   -1.3174   54.8154 C.2     1  ZINC000053543817   -0.1800
      4 C4        -12.2661   -2.0246   55.7321 C.2     1  ZINC000053543817   -0.1900
      5 C5        -12.9723   -2.9322   55.0272 C.2     1  ZINC000053543817    0.0000
      6 C6        -13.9560   -3.8966   55.6439 C.3     1  ZINC000053543817   -0.0300
      7 C7        -14.3099   -3.3957   57.0493 C.3     1  ZINC000053543817   -0.0500
      8 C8        -15.1540   -2.1243   56.9397 C.3     1  ZINC000053543817   -0.1500
      9 C9        -15.1051   -4.4733   57.7892 C.3     1  ZINC000053543817   -0.1400
     10 C10       -13.0244   -3.0894   57.8227 C.3     1  ZINC000053543817   -0.1200
     11 C11       -12.3540   -1.8456   57.2252 C.3     1  ZINC000053543817    0.2200
     12 H12       -12.9492   -0.9618   57.4549 H       1  ZINC000053543817    0.1000
     13 N13       -11.0086   -1.6933   57.7845 N.am    1  ZINC000053543817   -0.7100
     14 C14       -10.7873   -0.8078   58.7761 C.2     1  ZINC000053543817    0.5100
     15 O15       -11.7016   -0.1358   59.2043 O.2     1  ZINC000053543817   -0.5300
     16 C16        -9.4036   -0.6526   59.3527 C.3     1  ZINC000053543817    0.1400
     17 H17        -8.6890   -1.1948   58.7336 H       1  ZINC000053543817    0.1200
     18 C18        -9.3774   -1.2164   60.7746 C.3     1  ZINC000053543817   -0.1600
     19 N19        -9.0440    0.7674   59.3837 N.am    1  ZINC000053543817   -0.7000
     20 C20        -8.7186    1.4052   58.2418 C.2     1  ZINC000053543817    0.6600
     21 O21        -8.7220    0.8022   57.1869 O.2     1  ZINC000053543817   -0.5700
     22 O22        -8.3898    2.7104   58.2701 O.3     1  ZINC000053543817   -0.3600
     23 C23        -8.0523    3.3329   57.0024 C.3     1  ZINC000053543817    0.1400
     24 C24        -9.2385    3.2130   56.0436 C.3     1  ZINC000053543817   -0.1800
     25 C25        -7.7278    4.8105   57.2302 C.3     1  ZINC000053543817   -0.1400
     26 C26        -6.8348    2.6307   56.3977 C.3     1  ZINC000053543817   -0.1800
     27 O27       -12.6456   -2.8077   53.7354 O.3     1  ZINC000053543817   -0.1700
     28 H28       -11.5095   -1.9804   51.4802 H       1  ZINC000053543817    0.0800
     29 H29       -11.3266   -0.3344   52.1326 H       1  ZINC000053543817    0.0800
     30 H30       -10.0242   -1.5280   52.3506 H       1  ZINC000053543817    0.0800
     31 H31       -10.7784   -0.5174   55.0428 H       1  ZINC000053543817    0.1400
     32 H32       -14.8576   -3.9411   55.0329 H       1  ZINC000053543817    0.0900
     33 H33       -13.5055   -4.8869   55.7105 H       1  ZINC000053543817    0.0900
     34 H34       -16.0697   -2.3424   56.3903 H       1  ZINC000053543817    0.0600
     35 H35       -15.4056   -1.7681   57.9387 H       1  ZINC000053543817    0.0600
     36 H36       -14.5878   -1.3567   56.4122 H       1  ZINC000053543817    0.0600
     37 H37       -14.5042   -5.3793   57.8669 H       1  ZINC000053543817    0.0600
     38 H38       -15.3568   -4.1174   58.7883 H       1  ZINC000053543817    0.0600
     39 H39       -16.0210   -4.6907   57.2395 H       1  ZINC000053543817    0.0600
     40 H40       -13.2651   -2.9051   58.8696 H       1  ZINC000053543817    0.0800
     41 H41       -12.3453   -3.9389   57.7499 H       1  ZINC000053543817    0.0700
     42 H42       -10.2771   -2.2300   57.4412 H       1  ZINC000053543817    0.4000
     43 H43        -9.6449   -2.2728   60.7517 H       1  ZINC000053543817    0.0800
     44 H44        -8.3766   -1.1041   61.1918 H       1  ZINC000053543817    0.0800
     45 H45       -10.0920   -0.6740   61.3938 H       1  ZINC000053543817    0.0700
     46 H46        -9.0402    1.2484   60.2259 H       1  ZINC000053543817    0.4200
     47 H47       -10.1058    3.7132   56.4743 H       1  ZINC000053543817    0.0600
     48 H48        -8.9851    3.6802   55.0919 H       1  ZINC000053543817    0.0700
     49 H49        -9.4696    2.1601   55.8813 H       1  ZINC000053543817    0.0900
     50 H50        -6.8827    4.8959   57.9132 H       1  ZINC000053543817    0.0700
     51 H51        -7.4744    5.2777   56.2784 H       1  ZINC000053543817    0.0800
     52 H52        -8.5952    5.3108   57.6609 H       1  ZINC000053543817    0.0700
     53 H53        -7.0659    1.5779   56.2355 H       1  ZINC000053543817    0.0900
     54 H54        -6.5813    3.0978   55.4461 H       1  ZINC000053543817    0.0700
     55 H55        -5.9897    2.7160   57.0808 H       1  ZINC000053543817    0.0600
@<TRIPOS>BOND
     1     1     2    1
     2     1    28    1
     3     1    29    1
     4     1    30    1
     5     2    27    1
     6     2     3    2
     7     3     4    1
     8     3    31    1
     9     4    11    1
    10     4     5    2
    11     5     6    1
    12     5    27    1
    13     6     7    1
    14     6    32    1
    15     6    33    1
    16     7     8    1
    17     7     9    1
    18     7    10    1
    19     8    34    1
    20     8    35    1
    21     8    36    1
    22     9    37    1
    23     9    38    1
    24     9    39    1
    25    10    11    1
    26    10    40    1
    27    10    41    1
    28    11    12    1
    29    11    13    1
    30    13    14   am
    31    13    42    1
    32    14    15    2
    33    14    16    1
    34    16    17    1
    35    16    18    1
    36    16    19    1
    37    18    43    1
    38    18    44    1
    39    18    45    1
    40    19    20   am
    41    19    46    1
    42    20    21    2
    43    20    22    1
    44    22    23    1
    45    23    24    1
    46    23    25    1
    47    23    26    1
    48    24    47    1
    49    24    48    1
    50    24    49    1
    51    25    50    1
    52    25    51    1
    53    25    52    1
    54    26    53    1
    55    26    54    1
    56    26    55    1
@<TRIPOS>SUBSTRUCTURE
     1 ZINC000053543817        1 TEMP              0 ****  ****    0 ROOT


##########                                Name:    ZINC001041713551
##########                DOCK_Rotatable_Bonds:                  10
##########                         Heavy_Atoms:                  22
##########                    Molecular_Weight:             330.448
##########                DOCK_Rotatable_Bonds:                  10
##########                       Formal_Charge:          -0.0100006
##########                     HBond_Acceptors:                   7
##########                        HBond_Donors:                   2
##########                         Heavy_Atoms:                  22
##########                          Grid_Score:          -30.547819
##########                     Grid_vdw_energy:          -28.565277
##########                      Grid_es_energy:           -1.982542
##########           Internal_energy_repulsive:            8.917393

@<TRIPOS>MOLECULE
ZINC001041713551
 48 49 1 0 0
SMALL
USER_CHARGES


@<TRIPOS>ATOM
      1 C1         -9.9830    3.5161   66.9802 C.3     1  ZINC001041713551   -0.1500
      2 C2         -8.9785    2.5325   66.3763 C.3     1  ZINC001041713551   -0.1100
      3 C3         -9.6400    1.1623   66.2156 C.3     1  ZINC001041713551   -0.1000
      4 S4         -8.4489   -0.0040   65.5003 S.3     1  ZINC001041713551   -0.1800
      5 C5         -8.0343    0.7609   63.9086 C.3     1  ZINC001041713551   -0.1300
      6 C6         -9.2455    0.7430   63.0120 C.2     1  ZINC001041713551    0.5300
      7 O7        -10.1048    1.5896   63.1367 O.2     1  ZINC001041713551   -0.5100
      8 N8         -9.3736   -0.2140   62.0717 N.am    1  ZINC001041713551   -0.7300
      9 C9        -10.5503   -0.2304   61.1989 C.3     1  ZINC001041713551    0.1000
     10 C10       -10.1664   -0.8105   59.8362 C.3     1  ZINC001041713551    0.0900
     11 O11        -8.8520   -0.4339   59.4207 O.3     1  ZINC001041713551   -0.5200
     12 C12       -10.4542   -2.3167   59.7004 C.3     1  ZINC001041713551    0.0900
     13 N13       -10.9486   -1.9979   58.3469 N.am    1  ZINC001041713551   -0.6400
     14 C14       -11.0806   -2.6952   57.2010 C.2     1  ZINC001041713551    0.5500
     15 O15       -10.7491   -3.8610   57.1590 O.2     1  ZINC001041713551   -0.5100
     16 C16       -11.6401   -2.0261   55.9721 C.3     1  ZINC001041713551    0.0800
     17 H17       -12.6201   -1.6073   56.2005 H       1  ZINC001041713551    0.0800
     18 C18       -11.7745   -3.0554   54.8469 C.3     1  ZINC001041713551   -0.1500
     19 C19       -12.2866   -2.3559   53.5840 C.3     1  ZINC001041713551   -0.1200
     20 C20       -11.3281   -1.2180   53.2196 C.3     1  ZINC001041713551   -0.1600
     21 C21       -11.2109   -0.2597   54.4076 C.3     1  ZINC001041713551    0.0600
     22 O22       -10.7598   -0.9799   55.5565 O.3     1  ZINC001041713551   -0.3600
     23 C23       -11.2406   -0.6092   58.7521 C.3     1  ZINC001041713551    0.1200
     24 H24       -10.3065    3.1522   67.9554 H       1  ZINC001041713551    0.0600
     25 H25        -9.5118    4.4922   67.0947 H       1  ZINC001041713551    0.0600
     26 H26       -10.8464    3.6045   66.3208 H       1  ZINC001041713551    0.0600
     27 H27        -8.6551    2.8964   65.4011 H       1  ZINC001041713551    0.0700
     28 H28        -8.1152    2.4441   67.0358 H       1  ZINC001041713551    0.0700
     29 H29        -9.9639    0.7986   67.1908 H       1  ZINC001041713551    0.0800
     30 H30       -10.5031    1.2506   65.5558 H       1  ZINC001041713551    0.0800
     31 H31        -7.7185    1.7914   64.0721 H       1  ZINC001041713551    0.1100
     32 H32        -7.2250    0.2033   63.4373 H       1  ZINC001041713551    0.1100
     33 H33        -8.6869   -0.8919   61.9728 H       1  ZINC001041713551    0.4000
     34 H34       -11.3284   -0.8462   61.6499 H       1  ZINC001041713551    0.0900
     35 H35       -10.9209    0.7864   61.0696 H       1  ZINC001041713551    0.0900
     36 H36        -8.1706   -0.5799   60.0913 H       1  ZINC001041713551    0.3800
     37 H37        -9.5583   -2.9375   59.7060 H       1  ZINC001041713551    0.0900
     38 H38       -11.2284   -2.6788   60.3769 H       1  ZINC001041713551    0.1000
     39 H39       -10.8017   -3.5042   54.6455 H       1  ZINC001041713551    0.0800
     40 H40       -12.4799   -3.8311   55.1450 H       1  ZINC001041713551    0.0800
     41 H41       -12.3314   -3.0719   52.7633 H       1  ZINC001041713551    0.0700
     42 H42       -13.2808   -1.9496   53.7699 H       1  ZINC001041713551    0.0700
     43 H43       -10.3463   -1.6297   52.9854 H       1  ZINC001041713551    0.0700
     44 H44       -11.7141   -0.6797   52.3539 H       1  ZINC001041713551    0.0800
     45 H45       -10.4971    0.5289   54.1696 H       1  ZINC001041713551    0.1000
     46 H46       -12.1853    0.1824   54.6155 H       1  ZINC001041713551    0.0500
     47 H47       -12.2457   -0.4697   59.1501 H       1  ZINC001041713551    0.1100
     48 H48       -10.9725    0.1333   58.0005 H       1  ZINC001041713551    0.1000
@<TRIPOS>BOND
     1     1     2    1
     2     1    24    1
     3     1    25    1
     4     1    26    1
     5     2     3    1
     6     2    27    1
     7     2    28    1
     8     3     4    1
     9     3    29    1
    10     3    30    1
    11     4     5    1
    12     5     6    1
    13     5    31    1
    14     5    32    1
    15     6     7    2
    16     6     8   am
    17     8     9    1
    18     8    33    1
    19     9    10    1
    20     9    34    1
    21     9    35    1
    22    10    23    1
    23    10    11    1
    24    10    12    1
    25    11    36    1
    26    12    13    1
    27    12    37    1
    28    12    38    1
    29    13    14   am
    30    13    23    1
    31    14    15    2
    32    14    16    1
    33    16    17    1
    34    16    22    1
    35    16    18    1
    36    18    19    1
    37    18    39    1
    38    18    40    1
    39    19    20    1
    40    19    41    1
    41    19    42    1
    42    20    21    1
    43    20    43    1
    44    20    44    1
    45    21    22    1
    46    21    45    1
    47    21    46    1
    48    23    47    1
    49    23    48    1
@<TRIPOS>SUBSTRUCTURE
     1 ZINC001041713551        1 TEMP              0 ****  ****    0 ROOT


##########                                Name:    ZINC000442864105
##########                DOCK_Rotatable_Bonds:                   7
##########                         Heavy_Atoms:                  30
##########                    Molecular_Weight:              414.39
##########                DOCK_Rotatable_Bonds:                   7
##########                       Formal_Charge:           0.0200001
##########                     HBond_Acceptors:                  10
##########                        HBond_Donors:                   2
##########                         Heavy_Atoms:                  30
##########                          Grid_Score:          -30.499805
##########                     Grid_vdw_energy:          -29.486122
##########                      Grid_es_energy:           -1.013683
##########           Internal_energy_repulsive:           13.629860

@<TRIPOS>MOLECULE
ZINC000442864105
 47 50 1 0 0
SMALL
USER_CHARGES


@<TRIPOS>ATOM
      1 C1         -9.0890    2.4539   56.0806 C.3     1  ZINC000442864105    0.0800
      2 N2         -8.7042    1.7928   54.8310 N.pl3   1  ZINC000442864105   -0.4900
      3 C3         -7.6020    2.1078   54.0808 C.2     1  ZINC000442864105    0.0300
      4 C4         -7.5419    1.3138   53.0008 C.2     1  ZINC000442864105   -0.1900
      5 C5         -8.6994    0.4167   53.0630 C.ar    1  ZINC000442864105   -0.1600
      6 C6         -9.1739   -0.6101   52.2444 C.ar    1  ZINC000442864105   -0.0200
      7 C7        -10.3156   -1.2779   52.5838 C.ar    1  ZINC000442864105   -0.2100
      8 C8        -11.0125   -0.9419   53.7435 C.ar    1  ZINC000442864105    0.2400
      9 N9        -12.1797   -1.6353   54.0769 N.pl3   1  ZINC000442864105   -0.7400
     10 C10       -12.1267   -2.7387   55.0391 C.3     1  ZINC000442864105    0.1100
     11 C11       -12.8606   -2.3455   56.2952 C.2     1  ZINC000442864105    0.5100
     12 O12       -13.8759   -1.6857   56.2231 O.2     1  ZINC000442864105   -0.5100
     13 N13       -12.3890   -2.7270   57.4987 N.am    1  ZINC000442864105   -0.6600
     14 C14       -13.0707   -2.3618   58.6654 C.ar    1  ZINC000442864105    0.1600
     15 C15       -14.4281   -2.6199   58.7877 C.ar    1  ZINC000442864105   -0.0700
     16 C16       -15.0991   -2.2585   59.9406 C.ar    1  ZINC000442864105   -0.1600
     17 C17       -16.5737   -2.5400   60.0712 C.3     1  ZINC000442864105    0.5100
     18 F18       -17.2598   -1.9338   59.0134 F       1  ZINC000442864105   -0.1700
     19 F19       -16.7895   -3.9218   60.0361 F       1  ZINC000442864105   -0.1700
     20 F20       -17.0409   -2.0257   61.2855 F       1  ZINC000442864105   -0.1700
     21 C21       -14.4211   -1.6396   60.9748 C.ar    1  ZINC000442864105   -0.0600
     22 C22       -13.0687   -1.3781   60.8614 C.ar    1  ZINC000442864105   -0.1100
     23 C23       -12.3860   -1.7425   59.7107 C.ar    1  ZINC000442864105    0.1500
     24 N24       -11.0137   -1.4780   59.5935 N.pl3   1  ZINC000442864105   -0.3300
     25 C25       -10.3579   -1.0908   58.4825 C.2     1  ZINC000442864105    0.2800
     26 N26        -9.0931   -0.9487   58.7873 N.2     1  ZINC000442864105   -0.5300
     27 C27        -8.9034   -1.2341   60.0749 C.2     1  ZINC000442864105    0.2300
     28 N28       -10.0505   -1.5582   60.6125 N.2     1  ZINC000442864105   -0.3400
     29 C29       -10.5571    0.0727   54.5677 C.ar    1  ZINC000442864105   -0.2100
     30 C30        -9.3933    0.7583   54.2384 C.ar    1  ZINC000442864105    0.1500
     31 H31        -8.6236    1.9401   56.9217 H       1  ZINC000442864105    0.0700
     32 H32        -8.7565    3.4917   56.0599 H       1  ZINC000442864105    0.0800
     33 H33       -10.1730    2.4217   56.1898 H       1  ZINC000442864105    0.0800
     34 H34        -6.8873    2.8805   54.3228 H       1  ZINC000442864105    0.1700
     35 H35        -6.7843    1.3326   52.2312 H       1  ZINC000442864105    0.1400
     36 H36        -8.6392   -0.8753   51.3442 H       1  ZINC000442864105    0.1200
     37 H37       -10.6815   -2.0715   51.9493 H       1  ZINC000442864105    0.1200
     38 H38       -13.0247   -1.3857   53.6712 H       1  ZINC000442864105    0.4100
     39 H39       -12.5959   -3.6217   54.6054 H       1  ZINC000442864105    0.1000
     40 H40       -11.0872   -2.9609   55.2802 H       1  ZINC000442864105    0.1000
     41 H41       -11.5772   -3.2547   57.5564 H       1  ZINC000442864105    0.4300
     42 H42       -14.9606   -3.1032   57.9819 H       1  ZINC000442864105    0.1700
     43 H43       -14.9501   -1.3595   61.8737 H       1  ZINC000442864105    0.1500
     44 H44       -12.5425   -0.8943   61.6710 H       1  ZINC000442864105    0.1500
     45 H45       -10.7985   -0.9270   57.5102 H       1  ZINC000442864105    0.2300
     46 H46        -7.9559   -1.1990   60.5921 H       1  ZINC000442864105    0.2300
     47 H47       -11.1015    0.3281   55.4648 H       1  ZINC000442864105    0.1200
@<TRIPOS>BOND
     1     1     2    1
     2     1    31    1
     3     1    32    1
     4     1    33    1
     5     2    30    1
     6     2     3    1
     7     3     4    2
     8     3    34    1
     9     4     5    1
    10     4    35    1
    11     5    30   ar
    12     5     6   ar
    13     6     7   ar
    14     6    36    1
    15     7     8   ar
    16     7    37    1
    17     8     9    1
    18     8    29   ar
    19     9    10    1
    20     9    38    1
    21    10    11    1
    22    10    39    1
    23    10    40    1
    24    11    12    2
    25    11    13   am
    26    13    14    1
    27    13    41    1
    28    14    23   ar
    29    14    15   ar
    30    15    16   ar
    31    15    42    1
    32    16    17    1
    33    16    21   ar
    34    17    18    1
    35    17    19    1
    36    17    20    1
    37    21    22   ar
    38    21    43    1
    39    22    23   ar
    40    22    44    1
    41    23    24    1
    42    24    28    1
    43    24    25    1
    44    25    26    2
    45    25    45    1
    46    26    27    1
    47    27    28    2
    48    27    46    1
    49    29    30   ar
    50    29    47    1
@<TRIPOS>SUBSTRUCTURE
     1 ZINC000442864105        1 TEMP              0 ****  ****    0 ROOT


##########                                Name:    ZINC000572257265
##########                DOCK_Rotatable_Bonds:                  11
##########                         Heavy_Atoms:                  24
##########                    Molecular_Weight:             393.509
##########                DOCK_Rotatable_Bonds:                  11
##########                       Formal_Charge:          -0.0100002
##########                     HBond_Acceptors:                  11
##########                        HBond_Donors:                   3
##########                         Heavy_Atoms:                  24
##########                          Grid_Score:          -30.488558
##########                     Grid_vdw_energy:          -29.087626
##########                      Grid_es_energy:           -1.400933
##########           Internal_energy_repulsive:            9.293685

@<TRIPOS>MOLECULE
ZINC000572257265
 43 43 1 0 0
SMALL
USER_CHARGES


@<TRIPOS>ATOM
      1 C1         -8.8619    5.0037   52.2024 C.3     1  ZINC000572257265   -0.1300
      2 S2         -7.9325    3.9028   51.1002 S.3     1  ZINC000572257265   -0.2200
      3 C3         -7.5997    2.4609   52.1494 C.3     1  ZINC000572257265   -0.1300
      4 C4         -6.8099    1.4213   51.3518 C.3     1  ZINC000572257265    0.1500
      5 C5         -7.1817    0.0178   51.8347 C.3     1  ZINC000572257265   -0.1500
      6 O6         -7.1248    1.5462   49.9636 O.3     1  ZINC000572257265   -0.5400
      7 C7         -5.3113    1.6512   51.5576 C.3     1  ZINC000572257265    0.0900
      8 N8         -4.9207    2.9160   50.9302 N.am    1  ZINC000572257265   -1.1100
      9 S9         -3.4255    3.5618   51.2297 S.o2    1  ZINC000572257265    2.6900
     10 O10        -2.4812    2.5425   50.9323 O.2     1  ZINC000572257265   -0.9400
     11 O11        -3.4095    4.8408   50.6106 O.2     1  ZINC000572257265   -0.9500
     12 C12        -3.3191    3.8477   52.9651 C.ar    1  ZINC000572257265   -0.6300
     13 C13        -2.1601    3.5298   53.6482 C.ar    1  ZINC000572257265   -0.0400
     14 C14        -2.0767    3.7540   55.0098 C.ar    1  ZINC000572257265   -0.0400
     15 C15        -3.1521    4.2966   55.6880 C.ar    1  ZINC000572257265   -0.6300
     16 S16        -3.0460    4.5818   57.4236 S.o2    1  ZINC000572257265    2.7000
     17 O17        -1.7233    5.0362   57.6753 O.2     1  ZINC000572257265   -0.9400
     18 O18        -4.2039    5.3244   57.7798 O.2     1  ZINC000572257265   -0.9400
     19 N19        -3.1852    3.1109   58.1714 N.am    1  ZINC000572257265   -1.1200
     20 C20        -2.2130    2.0515   57.8910 C.3     1  ZINC000572257265    0.2200
     21 C21        -1.6269    1.5762   59.1550 C.1     1  ZINC000572257265    0.1900
     22 N22        -1.1747    1.2095   60.1304 N.1     1  ZINC000572257265   -0.3900
     23 C23        -4.3106    4.6156   55.0047 C.ar    1  ZINC000572257265   -0.0400
     24 C24        -4.3927    4.3949   53.6425 C.ar    1  ZINC000572257265   -0.0400
     25 H25        -8.2503    5.2495   53.0706 H       1  ZINC000572257265    0.0800
     26 H26        -9.1200    5.9186   51.6690 H       1  ZINC000572257265    0.1000
     27 H27        -9.7739    4.5046   52.5301 H       1  ZINC000572257265    0.0800
     28 H28        -7.0190    2.7702   53.0184 H       1  ZINC000572257265    0.0900
     29 H29        -8.5433    2.0259   52.4790 H       1  ZINC000572257265    0.0900
     30 H30        -8.2492   -0.1459   51.6880 H       1  ZINC000572257265    0.0800
     31 H31        -6.6190   -0.7229   51.2665 H       1  ZINC000572257265    0.0700
     32 H32        -6.9415   -0.0775   52.8937 H       1  ZINC000572257265    0.0800
     33 H33        -6.6610    0.9149   49.3967 H       1  ZINC000572257265    0.3800
     34 H34        -5.0933    1.6923   52.6248 H       1  ZINC000572257265    0.0900
     35 H35        -4.7526    0.8327   51.1039 H       1  ZINC000572257265    0.0800
     36 H36        -5.5378    3.3753   50.3393 H       1  ZINC000572257265    0.4300
     37 H37        -1.3199    3.1060   53.1183 H       1  ZINC000572257265    0.1500
     38 H38        -1.1715    3.5050   55.5435 H       1  ZINC000572257265    0.1500
     39 H39        -3.9106    2.9507   58.7952 H       1  ZINC000572257265    0.4300
     40 H40        -2.7127    1.2235   57.3882 H       1  ZINC000572257265    0.1100
     41 H41        -1.4238    2.4432   57.2493 H       1  ZINC000572257265    0.1300
     42 H42        -5.1506    5.0398   55.5346 H       1  ZINC000572257265    0.1600
     43 H43        -5.2978    4.6443   53.1086 H       1  ZINC000572257265    0.1500
@<TRIPOS>BOND
     1     1     2    1
     2     1    25    1
     3     1    26    1
     4     1    27    1
     5     2     3    1
     6     3     4    1
     7     3    28    1
     8     3    29    1
     9     4     5    1
    10     4     6    1
    11     4     7    1
    12     5    30    1
    13     5    31    1
    14     5    32    1
    15     6    33    1
    16     7     8    1
    17     7    34    1
    18     7    35    1
    19     8     9   am
    20     8    36    1
    21     9    10    2
    22     9    11    2
    23     9    12    1
    24    12    24   ar
    25    12    13   ar
    26    13    14   ar
    27    13    37    1
    28    14    15   ar
    29    14    38    1
    30    15    16    1
    31    15    23   ar
    32    16    17    2
    33    16    18    2
    34    16    19   am
    35    19    20    1
    36    19    39    1
    37    20    21    1
    38    20    40    1
    39    20    41    1
    40    21    22    3
    41    23    24   ar
    42    23    42    1
    43    24    43    1
@<TRIPOS>SUBSTRUCTURE
     1 ZINC000572257265        1 TEMP              0 ****  ****    0 ROOT


##########                                Name:    ZINC001082278299
##########                DOCK_Rotatable_Bonds:                   9
##########                         Heavy_Atoms:                  25
##########                    Molecular_Weight:              346.47
##########                DOCK_Rotatable_Bonds:                   9
##########                       Formal_Charge:           0.0200001
##########                     HBond_Acceptors:                   5
##########                        HBond_Donors:                   1
##########                         Heavy_Atoms:                  25
##########                          Grid_Score:          -30.463110
##########                     Grid_vdw_energy:          -29.910887
##########                      Grid_es_energy:           -0.552224
##########           Internal_energy_repulsive:           85.314133

@<TRIPOS>MOLECULE
ZINC001082278299
 55 57 1 0 0
SMALL
USER_CHARGES


@<TRIPOS>ATOM
      1 C1         -9.7195   -1.3641   60.5036 C.3     1  ZINC001082278299   -0.1300
      2 C2        -10.1809   -0.0120   60.9830 C.2     1  ZINC001082278299    0.0000
      3 C3        -10.2802    0.9995   60.1252 C.2     1  ZINC001082278299   -0.2300
      4 C4         -9.9396    0.7985   58.7084 C.2     1  ZINC001082278299    0.5400
      5 O5         -8.7997    0.5178   58.3910 O.2     1  ZINC001082278299   -0.5300
      6 N6        -10.8907    0.9256   57.7619 N.am    1  ZINC001082278299   -0.7400
      7 C7        -10.5509    0.7272   56.3508 C.3     1  ZINC001082278299    0.1300
      8 C8        -11.5194   -0.2816   55.7301 C.3     1  ZINC001082278299    0.1400
      9 H9        -12.5189    0.1511   55.6855 H       1  ZINC001082278299    0.0800
     10 C10       -11.5487   -1.5555   56.5803 C.3     1  ZINC001082278299   -0.1300
     11 C11       -12.4096   -2.6106   55.8817 C.3     1  ZINC001082278299   -0.1200
     12 C12       -11.7973   -2.9518   54.5214 C.3     1  ZINC001082278299   -0.1400
     13 C13       -11.7709   -1.6937   53.6477 C.3     1  ZINC001082278299    0.1100
     14 N14       -11.0706   -0.6250   54.3738 N.am    1  ZINC001082278299   -0.6100
     15 C15       -10.0334    0.0238   53.8083 C.2     1  ZINC001082278299    0.5100
     16 O16        -9.4638    0.9041   54.4178 O.2     1  ZINC001082278299   -0.5100
     17 C17        -9.5816   -0.3444   52.4186 C.3     1  ZINC001082278299   -0.1100
     18 C18        -8.6027    0.6867   51.9190 C.2     1  ZINC001082278299   -0.0900
     19 C19        -9.0420    1.8734   51.6216 C.2     1  ZINC001082278299   -0.1800
     20 C20        -8.1503    2.9678   51.1078 C.3     1  ZINC001082278299    0.0900
     21 O21        -6.7802    2.6378   51.3445 O.3     1  ZINC001082278299   -0.3800
     22 C22        -6.4350    1.3217   50.8947 C.3     1  ZINC001082278299    0.0600
     23 C23        -7.1538    0.3053   51.7892 C.3     1  ZINC001082278299   -0.1100
     24 C24       -10.5300    0.1940   62.4344 C.3     1  ZINC001082278299   -0.1200
     25 C25        -9.3736    0.3586   63.4227 C.3     1  ZINC001082278299   -0.1900
     26 C26       -10.2343    1.5657   63.0443 C.3     1  ZINC001082278299   -0.1500
     27 H27        -8.6344   -1.4275   60.5849 H       1  ZINC001082278299    0.0800
     28 H28       -10.1758   -2.1419   61.1158 H       1  ZINC001082278299    0.0800
     29 H29       -10.0145   -1.5009   59.4631 H       1  ZINC001082278299    0.0700
     30 H30       -10.6110    1.9684   60.4689 H       1  ZINC001082278299    0.1300
     31 H31       -11.8001    1.1484   58.0152 H       1  ZINC001082278299    0.3900
     32 H32       -10.6273    1.6771   55.8216 H       1  ZINC001082278299    0.0900
     33 H33        -9.5320    0.3484   56.2721 H       1  ZINC001082278299    0.0800
     34 H34       -10.5343   -1.9356   56.7013 H       1  ZINC001082278299    0.0700
     35 H35       -11.9724   -1.3301   57.5590 H       1  ZINC001082278299    0.0800
     36 H36       -12.4522   -3.5097   56.4966 H       1  ZINC001082278299    0.0700
     37 H37       -13.4173   -2.2205   55.7388 H       1  ZINC001082278299    0.0700
     38 H38       -10.7806   -3.3188   54.6617 H       1  ZINC001082278299    0.0700
     39 H39       -12.3979   -3.7203   54.0346 H       1  ZINC001082278299    0.0800
     40 H40       -11.2468   -1.9068   52.7160 H       1  ZINC001082278299    0.0900
     41 H41       -12.7913   -1.3777   53.4313 H       1  ZINC001082278299    0.0700
     42 H42        -9.1003   -1.3221   52.4402 H       1  ZINC001082278299    0.1000
     43 H43       -10.4443   -0.3787   51.7533 H       1  ZINC001082278299    0.1000
     44 H44       -10.0941    2.0815   51.7492 H       1  ZINC001082278299    0.1100
     45 H45        -8.3121    3.0929   50.0371 H       1  ZINC001082278299    0.0600
     46 H46        -8.3910    3.8999   51.6189 H       1  ZINC001082278299    0.1000
     47 H47        -6.7504    1.1931   49.8593 H       1  ZINC001082278299    0.0600
     48 H48        -5.3572    1.1786   50.9711 H       1  ZINC001082278299    0.1000
     49 H49        -6.6857    0.2930   52.7735 H       1  ZINC001082278299    0.0800
     50 H50        -7.0830   -0.6861   51.3416 H       1  ZINC001082278299    0.0800
     51 H51       -11.4196   -0.3307   62.7831 H       1  ZINC001082278299    0.1300
     52 H52        -9.5022   -0.0579   64.4217 H       1  ZINC001082278299    0.1000
     53 H53        -8.3603    0.3179   63.0229 H       1  ZINC001082278299    0.1000
     54 H54        -9.7873    2.3190   62.3957 H       1  ZINC001082278299    0.0900
     55 H55       -10.9291    1.9433   63.7944 H       1  ZINC001082278299    0.1000
@<TRIPOS>BOND
     1     1     2    1
     2     1    27    1
     3     1    28    1
     4     1    29    1
     5     2     3    2
     6     2    24    1
     7     3     4    1
     8     3    30    1
     9     4     5    2
    10     4     6   am
    11     6     7    1
    12     6    31    1
    13     7     8    1
    14     7    32    1
    15     7    33    1
    16     8     9    1
    17     8    14    1
    18     8    10    1
    19    10    11    1
    20    10    34    1
    21    10    35    1
    22    11    12    1
    23    11    36    1
    24    11    37    1
    25    12    13    1
    26    12    38    1
    27    12    39    1
    28    13    14    1
    29    13    40    1
    30    13    41    1
    31    14    15   am
    32    15    16    2
    33    15    17    1
    34    17    18    1
    35    17    42    1
    36    17    43    1
    37    18    23    1
    38    18    19    2
    39    19    20    1
    40    19    44    1
    41    20    21    1
    42    20    45    1
    43    20    46    1
    44    21    22    1
    45    22    23    1
    46    22    47    1
    47    22    48    1
    48    23    49    1
    49    23    50    1
    50    24    26    1
    51    24    25    1
    52    24    51    1
    53    25    26    1
    54    25    52    1
    55    25    53    1
    56    26    54    1
    57    26    55    1
@<TRIPOS>SUBSTRUCTURE
     1 ZINC001082278299        1 TEMP              0 ****  ****    0 ROOT


##########                                Name:    ZINC000006915700
##########                DOCK_Rotatable_Bonds:                   5
##########                         Heavy_Atoms:                  26
##########                    Molecular_Weight:             369.447
##########                DOCK_Rotatable_Bonds:                   5
##########                       Formal_Charge:        -1.04308e-07
##########                     HBond_Acceptors:                   8
##########                        HBond_Donors:                   1
##########                         Heavy_Atoms:                  26
##########                          Grid_Score:          -30.455103
##########                     Grid_vdw_energy:          -30.265852
##########                      Grid_es_energy:           -0.189251
##########           Internal_energy_repulsive:            4.659726

@<TRIPOS>MOLECULE
ZINC000006915700
 45 48 1 0 0
SMALL
USER_CHARGES


@<TRIPOS>ATOM
      1 C1        -10.8817   -0.4120   52.4563 C.3     1  <0>        -0.1200
      2 C2         -9.5432    0.2697   52.3342 C.ar    1  <0>        -0.0500
      3 C3         -9.4564    1.6447   52.4612 C.ar    1  <0>        -0.1300
      4 C4         -8.2338    2.2747   52.3509 C.ar    1  <0>        -0.0600
      5 C5         -7.0839    1.5222   52.1106 C.ar    1  <0>        -0.0700
      6 C6         -5.7685    2.1921   51.9916 C.2     1  <0>         0.4400
      7 N7         -5.1433    2.1975   50.8216 N.2     1  <0>        -0.5200
      8 C8         -3.9559    2.7984   50.6989 C.2     1  <0>         0.3600
      9 C9         -3.0822    2.9667   49.6323 C.2     1  <0>        -0.3200
     10 C10        -1.9801    3.6873   50.0952 C.2     1  <0>         0.5500
     11 O11        -1.0133    4.0185   49.4284 O.2     1  <0>        -0.5200
     12 N12        -2.1646    3.9558   51.4025 N.am    1  <0>        -0.5000
     13 N13        -3.3899    3.4106   51.7982 N.pl3   1  <0>        -0.3300
     14 C14        -4.0585    3.3877   52.9881 C.2     1  <0>         0.3900
     15 S15        -3.3645    4.1598   54.4118 S.3     1  <0>         0.1200
     16 C16        -4.5511    3.6243   55.6694 C.3     1  <0>        -0.1500
     17 C17        -4.1706    4.2149   57.0027 C.2     1  <0>         0.5500
     18 O18        -4.8612    5.0770   57.5034 O.2     1  <0>        -0.5200
     19 N19        -3.0628    3.7849   57.6386 N.am    1  <0>        -0.6100
     20 C20        -2.1374    2.7542   57.1457 C.3     1  <0>         0.0900
     21 C21        -1.0380    2.5769   58.2141 C.3     1  <0>        -0.1300
     22 C22        -1.7165    3.1113   59.5030 C.3     1  <0>        -0.1400
     23 C23        -2.5748    4.2747   58.9407 C.3     1  <0>         0.1000
     24 N24        -5.2349    2.7850   53.0624 N.2     1  <0>        -0.5600
     25 C25        -7.1781    0.1363   51.9837 C.ar    1  <0>        -0.0500
     26 C26        -8.4057   -0.4825   52.1013 C.ar    1  <0>        -0.1300
     27 H27       -11.0619   -0.6747   53.4988 H       1  <0>         0.0800
     28 H28       -11.6656    0.2619   52.1108 H       1  <0>         0.0700
     29 H29       -10.8857   -1.3164   51.8479 H       1  <0>         0.0700
     30 H30       -10.3473    2.2261   52.6467 H       1  <0>         0.1300
     31 H31        -8.1672    3.3480   52.4497 H       1  <0>         0.1300
     32 H32        -3.2292    2.6046   48.6255 H       1  <0>         0.1800
     33 H33        -1.5512    4.4451   51.9729 H       1  <0>         0.4400
     34 H34        -5.5499    3.9626   55.3939 H       1  <0>         0.1400
     35 H35        -4.5419    2.5365   55.7379 H       1  <0>         0.1400
     36 H36        -2.6709    1.8145   57.0033 H       1  <0>         0.0800
     37 H37        -1.6913    3.0760   56.2046 H       1  <0>         0.0800
     38 H38        -0.7741    1.5251   58.3249 H       1  <0>         0.0900
     39 H39        -0.1593    3.1721   57.9657 H       1  <0>         0.0800
     40 H40        -2.3425    2.3455   59.9613 H       1  <0>         0.0800
     41 H41        -0.9746    3.4819   60.2104 H       1  <0>         0.0900
     42 H42        -1.9643    5.1683   58.8112 H       1  <0>         0.0800
     43 H43        -3.4150    4.4811   59.6036 H       1  <0>         0.0800
     44 H44        -6.2914   -0.4516   51.7976 H       1  <0>         0.1400
     45 H45        -8.4799   -1.5555   52.0034 H       1  <0>         0.1300
@<TRIPOS>BOND
     1     1     2    1
     2     1    27    1
     3     1    28    1
     4     1    29    1
     5     2    26   ar
     6     2     3   ar
     7     3     4   ar
     8     3    30    1
     9     4     5   ar
    10     4    31    1
    11     5     6    1
    12     5    25   ar
    13     6    24    1
    14     6     7    2
    15     7     8    1
    16     8    13    1
    17     8     9    2
    18     9    10    1
    19     9    32    1
    20    10    11    2
    21    10    12   am
    22    12    13    1
    23    12    33    1
    24    13    14    1
    25    14    15    1
    26    14    24    2
    27    15    16    1
    28    16    17    1
    29    16    34    1
    30    16    35    1
    31    17    18    2
    32    17    19   am
    33    19    23    1
    34    19    20    1
    35    20    21    1
    36    20    36    1
    37    20    37    1
    38    21    22    1
    39    21    38    1
    40    21    39    1
    41    22    23    1
    42    22    40    1
    43    22    41    1
    44    23    42    1
    45    23    43    1
    46    25    26   ar
    47    25    44    1
    48    26    45    1
@<TRIPOS>SUBSTRUCTURE
     1 <0>         1 TEMP              0 ****  ****    0 ROOT


##########                                Name:    ZINC000076573199
##########                DOCK_Rotatable_Bonds:                  10
##########                         Heavy_Atoms:                  24
##########                    Molecular_Weight:             333.431
##########                DOCK_Rotatable_Bonds:                  10
##########                       Formal_Charge:          -0.0200009
##########                     HBond_Acceptors:                   6
##########                        HBond_Donors:                   3
##########                         Heavy_Atoms:                  24
##########                          Grid_Score:          -30.428083
##########                     Grid_vdw_energy:          -29.572176
##########                      Grid_es_energy:           -0.855908
##########           Internal_energy_repulsive:           22.501268

@<TRIPOS>MOLECULE
ZINC000076573199
 51 51 1 0 0
SMALL
USER_CHARGES


@<TRIPOS>ATOM
      1 C1         -2.2504    2.8842   52.0577 C.3     1  ZINC000076573199   -0.1500
      2 C2         -3.7771    2.9756   52.1049 C.3     1  ZINC000076573199   -0.1200
      3 C3         -4.3667    2.3068   50.8616 C.3     1  ZINC000076573199   -0.1000
      4 H4         -3.7168    1.4911   50.5450 H       1  ZINC000076573199    0.0700
      5 C5         -4.4802    3.3353   49.7346 C.3     1  ZINC000076573199   -0.1500
      6 C6         -5.7553    1.7544   51.1897 C.3     1  ZINC000076573199   -0.1200
      7 C7         -6.6902    2.9092   51.5548 C.3     1  ZINC000076573199    0.1400
      8 H8         -6.1014    3.8044   51.7542 H       1  ZINC000076573199    0.1000
      9 C9         -7.6479    3.1772   50.3920 C.3     1  ZINC000076573199   -0.1700
     10 N10        -7.4602    2.5549   52.7498 N.am    1  ZINC000076573199   -0.6900
     11 C11        -7.0515    2.9747   53.9636 C.2     1  ZINC000076573199    0.5100
     12 O12        -6.0450    3.6449   54.0668 O.2     1  ZINC000076573199   -0.5100
     13 C13        -7.8374    2.6151   55.1817 C.2     1  ZINC000076573199    0.5100
     14 O14        -8.9451    2.1317   55.0685 O.2     1  ZINC000076573199   -0.5000
     15 N15        -7.3168    2.8274   56.4066 N.am    1  ZINC000076573199   -0.6400
     16 C16        -8.0520    2.4910   57.5461 C.ar    1  ZINC000076573199    0.1500
     17 C17        -8.6851    3.4840   58.2838 C.ar    1  ZINC000076573199   -0.1300
     18 C18        -9.4126    3.1517   59.4104 C.ar    1  ZINC000076573199   -0.0800
     19 C19        -9.5132    1.8322   59.8073 C.ar    1  ZINC000076573199   -0.1200
     20 C20       -10.3081    1.4746   61.0366 C.3     1  ZINC000076573199   -0.1100
     21 C21        -8.8824    0.8345   59.0741 C.ar    1  ZINC000076573199    0.1600
     22 N22        -8.9849   -0.5016   59.4770 N.am    1  ZINC000076573199   -0.6700
     23 C23       -10.1094   -1.1986   59.2199 C.2     1  ZINC000076573199    0.5100
     24 C24       -10.2200   -2.6375   59.6537 C.3     1  ZINC000076573199   -0.1700
     25 O25       -11.0326   -0.6677   58.6393 O.2     1  ZINC000076573199   -0.5200
     26 C26        -8.1556    1.1637   57.9395 C.ar    1  ZINC000076573199   -0.1400
     27 H27        -1.8838    3.3902   51.1645 H       1  ZINC000076573199    0.0600
     28 H28        -1.8304    3.3606   52.9434 H       1  ZINC000076573199    0.0500
     29 H29        -1.9497    1.8369   52.0312 H       1  ZINC000076573199    0.0500
     30 H30        -4.1437    2.4696   52.9980 H       1  ZINC000076573199    0.0600
     31 H31        -4.0777    4.0229   52.1313 H       1  ZINC000076573199    0.0600
     32 H32        -5.1945    4.1081   50.0186 H       1  ZINC000076573199    0.0600
     33 H33        -3.5051    3.7892   49.5574 H       1  ZINC000076573199    0.0600
     34 H34        -4.8218    2.8414   48.8250 H       1  ZINC000076573199    0.0500
     35 H35        -6.1510    1.2272   50.3217 H       1  ZINC000076573199    0.0800
     36 H36        -5.6828    1.0656   52.0313 H       1  ZINC000076573199    0.0700
     37 H37        -8.3140    3.9999   50.6521 H       1  ZINC000076573199    0.0600
     38 H38        -7.0751    3.4408   49.5029 H       1  ZINC000076573199    0.0700
     39 H39        -8.2369    2.2819   50.1926 H       1  ZINC000076573199    0.0600
     40 H40        -8.2640    2.0183   52.6675 H       1  ZINC000076573199    0.4100
     41 H41        -6.4315    3.2137   56.4970 H       1  ZINC000076573199    0.4200
     42 H42        -8.6081    4.5164   57.9763 H       1  ZINC000076573199    0.1400
     43 H43        -9.9034    3.9252   59.9823 H       1  ZINC000076573199    0.1300
     44 H44       -11.3430    1.2790   60.7558 H       1  ZINC000076573199    0.0700
     45 H45        -9.8823    0.5837   61.4981 H       1  ZINC000076573199    0.0600
     46 H46       -10.2740    2.3024   61.7449 H       1  ZINC000076573199    0.0700
     47 H47        -8.2467   -0.9262   59.9413 H       1  ZINC000076573199    0.4100
     48 H48       -10.1134   -2.6996   60.7368 H       1  ZINC000076573199    0.0900
     49 H49       -11.1932   -3.0316   59.3612 H       1  ZINC000076573199    0.1000
     50 H50        -9.4330   -3.2221   59.1772 H       1  ZINC000076573199    0.0900
     51 H51        -7.6645    0.3899   57.3680 H       1  ZINC000076573199    0.1400
@<TRIPOS>BOND
     1     1     2    1
     2     1    27    1
     3     1    28    1
     4     1    29    1
     5     2     3    1
     6     2    30    1
     7     2    31    1
     8     3     4    1
     9     3     5    1
    10     3     6    1
    11     5    32    1
    12     5    33    1
    13     5    34    1
    14     6     7    1
    15     6    35    1
    16     6    36    1
    17     7     8    1
    18     7     9    1
    19     7    10    1
    20     9    37    1
    21     9    38    1
    22     9    39    1
    23    10    11   am
    24    10    40    1
    25    11    12    2
    26    11    13    1
    27    13    14    2
    28    13    15   am
    29    15    16    1
    30    15    41    1
    31    16    26   ar
    32    16    17   ar
    33    17    18   ar
    34    17    42    1
    35    18    19   ar
    36    18    43    1
    37    19    20    1
    38    19    21   ar
    39    20    44    1
    40    20    45    1
    41    20    46    1
    42    21    22    1
    43    21    26   ar
    44    22    23   am
    45    22    47    1
    46    23    24    1
    47    23    25    2
    48    24    48    1
    49    24    49    1
    50    24    50    1
    51    26    51    1
@<TRIPOS>SUBSTRUCTURE
     1 ZINC000076573199        1 TEMP              0 ****  ****    0 ROOT


##########                                Name:    ZINC001757264545
##########                DOCK_Rotatable_Bonds:                  11
##########                         Heavy_Atoms:                  25
##########                    Molecular_Weight:             344.497
##########                DOCK_Rotatable_Bonds:                  11
##########                       Formal_Charge:          0.00999946
##########                     HBond_Acceptors:                   4
##########                        HBond_Donors:                   2
##########                         Heavy_Atoms:                  25
##########                          Grid_Score:          -30.417789
##########                     Grid_vdw_energy:          -29.306028
##########                      Grid_es_energy:           -1.111762
##########           Internal_energy_repulsive:            8.293600

@<TRIPOS>MOLECULE
ZINC001757264545
 57 57 1 0 0
SMALL
USER_CHARGES


@<TRIPOS>ATOM
      1 C1         -5.7090    2.5188   49.9876 C.1     1  ZINC001757264545   -0.2100
      2 C2         -4.6267    2.8138   50.3341 C.1     1  ZINC001757264545   -0.1900
      3 C3         -3.2698    3.1836   50.7684 C.3     1  ZINC001757264545   -0.0100
      4 C4         -3.3283    4.4850   51.5710 C.3     1  ZINC001757264545   -0.1200
      5 C5         -4.1086    4.2507   52.8661 C.3     1  ZINC001757264545   -0.1200
      6 C6         -3.1591    3.7287   53.9462 C.3     1  ZINC001757264545   -0.1000
      7 C7         -3.9099    3.6171   55.2747 C.3     1  ZINC001757264545   -0.1400
      8 C8         -3.0785    2.8334   56.2573 C.2     1  ZINC001757264545    0.5100
      9 O9         -3.5141    1.8090   56.7389 O.2     1  ZINC001757264545   -0.5400
     10 N10        -1.8509    3.2708   56.6011 N.am    1  ZINC001757264545   -0.7300
     11 C11        -1.0420    2.5080   57.5550 C.3     1  ZINC001757264545    0.1400
     12 H12        -1.2351    1.4431   57.4253 H       1  ZINC001757264545    0.1000
     13 C13        -1.4091    2.9227   58.9812 C.3     1  ZINC001757264545   -0.1300
     14 C14        -0.5642    2.1261   59.9775 C.3     1  ZINC001757264545   -0.1200
     15 C15         0.9188    2.4093   59.7297 C.3     1  ZINC001757264545   -0.1200
     16 C16         1.2858    1.9946   58.3035 C.3     1  ZINC001757264545   -0.1300
     17 C17         0.4410    2.7913   57.3073 C.3     1  ZINC001757264545    0.1400
     18 H18         0.6341    3.8561   57.4371 H       1  ZINC001757264545    0.1000
     19 N19         0.7925    2.3942   55.9416 N.am    1  ZINC001757264545   -0.7200
     20 C20         1.8433    2.9677   55.3224 C.2     1  ZINC001757264545    0.6400
     21 O21         2.5005    3.8139   55.8978 O.2     1  ZINC001757264545   -0.5200
     22 C22         2.1858    2.5808   53.9868 C.1     1  ZINC001757264545   -0.2300
     23 C23         2.4666    2.2636   52.8919 C.1     1  ZINC001757264545   -0.0500
     24 C24         2.8187    1.8658   51.5191 C.3     1  ZINC001757264545    0.0300
     25 C25         1.5529    1.4463   50.7692 C.3     1  ZINC001757264545   -0.1400
     26 C26         3.4712    3.0467   50.7976 C.3     1  ZINC001757264545   -0.1400
     27 C27         3.7980    0.6911   51.5638 C.3     1  ZINC001757264545   -0.1400
     28 H28        -6.6769    2.2549   49.6778 H       1  ZINC001757264545    0.2200
     29 H29        -2.6341    3.3242   49.8943 H       1  ZINC001757264545    0.0900
     30 H30        -2.8592    2.3899   51.3925 H       1  ZINC001757264545    0.0900
     31 H31        -3.8266    5.2539   50.9807 H       1  ZINC001757264545    0.0700
     32 H32        -2.3159    4.8098   51.8106 H       1  ZINC001757264545    0.0700
     33 H33        -4.8954    3.5175   52.6887 H       1  ZINC001757264545    0.0700
     34 H34        -4.5542    5.1890   53.1966 H       1  ZINC001757264545    0.0700
     35 H35        -2.3223    4.4181   54.0586 H       1  ZINC001757264545    0.0700
     36 H36        -2.7845    2.7468   53.6571 H       1  ZINC001757264545    0.0700
     37 H37        -4.8594    3.1065   55.1137 H       1  ZINC001757264545    0.0900
     38 H38        -4.0967    4.6150   55.6714 H       1  ZINC001757264545    0.0900
     39 H39        -1.5030    4.0907   56.2169 H       1  ZINC001757264545    0.4000
     40 H40        -1.2160    3.9876   59.1110 H       1  ZINC001757264545    0.0700
     41 H41        -2.4656    2.7209   59.1578 H       1  ZINC001757264545    0.0800
     42 H42        -0.8258    2.4215   60.9936 H       1  ZINC001757264545    0.0700
     43 H43        -0.7573    1.0612   59.8477 H       1  ZINC001757264545    0.0700
     44 H44         1.5206    1.8418   60.4395 H       1  ZINC001757264545    0.0700
     45 H45         1.1118    3.4742   59.8595 H       1  ZINC001757264545    0.0700
     46 H46         1.0927    0.9297   58.1736 H       1  ZINC001757264545    0.0700
     47 H47         2.3423    2.1964   58.1270 H       1  ZINC001757264545    0.0800
     48 H48         0.2690    1.7185   55.4830 H       1  ZINC001757264545    0.4000
     49 H49         0.8552    2.2832   50.7373 H       1  ZINC001757264545    0.0600
     50 H50         1.8136    1.1518   49.7526 H       1  ZINC001757264545    0.0700
     51 H51         1.0880    0.6051   51.2832 H       1  ZINC001757264545    0.0600
     52 H52         4.3730    3.3456   51.3319 H       1  ZINC001757264545    0.0600
     53 H53         3.7320    2.7523   49.7810 H       1  ZINC001757264545    0.0700
     54 H54         2.7735    3.8836   50.7658 H       1  ZINC001757264545    0.0600
     55 H55         3.3331   -0.1501   52.0779 H       1  ZINC001757264545    0.0600
     56 H56         4.0588    0.3967   50.5472 H       1  ZINC001757264545    0.0700
     57 H57         4.6998    0.9901   52.0981 H       1  ZINC001757264545    0.0600
@<TRIPOS>BOND
     1     1     2    3
     2     1    28    1
     3     2     3    1
     4     3     4    1
     5     3    29    1
     6     3    30    1
     7     4     5    1
     8     4    31    1
     9     4    32    1
    10     5     6    1
    11     5    33    1
    12     5    34    1
    13     6     7    1
    14     6    35    1
    15     6    36    1
    16     7     8    1
    17     7    37    1
    18     7    38    1
    19     8     9    2
    20     8    10   am
    21    10    11    1
    22    10    39    1
    23    11    12    1
    24    11    17    1
    25    11    13    1
    26    13    14    1
    27    13    40    1
    28    13    41    1
    29    14    15    1
    30    14    42    1
    31    14    43    1
    32    15    16    1
    33    15    44    1
    34    15    45    1
    35    16    17    1
    36    16    46    1
    37    16    47    1
    38    17    18    1
    39    17    19    1
    40    19    20   am
    41    19    48    1
    42    20    21    2
    43    20    22    1
    44    22    23    3
    45    23    24    1
    46    24    25    1
    47    24    26    1
    48    24    27    1
    49    25    49    1
    50    25    50    1
    51    25    51    1
    52    26    52    1
    53    26    53    1
    54    26    54    1
    55    27    55    1
    56    27    56    1
    57    27    57    1
@<TRIPOS>SUBSTRUCTURE
     1 ZINC001757264545        1 TEMP              0 ****  ****    0 ROOT


##########                                Name:    ZINC000047262406
##########                DOCK_Rotatable_Bonds:                   6
##########                         Heavy_Atoms:                  28
##########                    Molecular_Weight:             417.919
##########                DOCK_Rotatable_Bonds:                   6
##########                       Formal_Charge:          -0.0100002
##########                     HBond_Acceptors:                   9
##########                        HBond_Donors:                   1
##########                         Heavy_Atoms:                  28
##########                          Grid_Score:          -30.411987
##########                     Grid_vdw_energy:          -28.931473
##########                      Grid_es_energy:           -1.480515
##########           Internal_energy_repulsive:           16.730124

@<TRIPOS>MOLECULE
ZINC000047262406
 48 51 1 0 0
SMALL
USER_CHARGES


@<TRIPOS>ATOM
      1 C1        -12.4306    2.4131   54.1020 C.3     1  ZINC000047262406   -0.1500
      2 C2        -11.7273    1.1375   53.6337 C.3     1  ZINC000047262406    0.1800
      3 H3        -12.2711    0.7116   52.7904 H       1  ZINC000047262406    0.0800
      4 C4        -11.6910    0.1405   54.7631 C.2     1  ZINC000047262406    0.1700
      5 N5        -12.3097   -1.0059   54.7970 N.2     1  ZINC000047262406   -0.2500
      6 N6        -12.0578   -1.5994   55.9103 N.2     1  ZINC000047262406   -0.2700
      7 C7        -11.2604   -0.8434   56.6334 C.2     1  ZINC000047262406    0.2400
      8 C8        -10.7355   -1.1573   57.9707 C.2     1  ZINC000047262406   -0.1500
      9 C9         -9.7528   -0.4676   58.6128 C.2     1  ZINC000047262406   -0.0600
     10 C10        -9.4344   -0.9573   59.8602 C.2     1  ZINC000047262406   -0.1400
     11 C11       -10.1350   -2.0284   60.2470 C.2     1  ZINC000047262406   -0.1900
     12 S12       -11.2842   -2.4781   58.9946 S.3     1  ZINC000047262406    0.1700
     13 O13       -11.0091    0.2710   55.9157 O.3     1  ZINC000047262406   -0.2200
     14 N14       -10.3550    1.4587   53.2196 N.3     1  ZINC000047262406   -0.5200
     15 C15       -10.3518    2.3041   52.0190 C.3     1  ZINC000047262406    0.0500
     16 C16        -8.9186    2.7375   51.7024 C.3     1  ZINC000047262406   -0.1000
     17 C17        -8.0529    1.4947   51.4766 C.3     1  ZINC000047262406   -0.1100
     18 C18        -6.6275    1.9132   51.2235 C.2     1  ZINC000047262406    0.5100
     19 O19        -6.3362    2.4809   50.1922 O.2     1  ZINC000047262406   -0.4600
     20 N20        -5.6765    1.6566   52.1435 N.am    1  ZINC000047262406   -0.6600
     21 C21        -4.3573    2.0439   51.9093 C.ar    1  ZINC000047262406    0.3600
     22 C22        -3.6388    2.6817   52.9134 C.ar    1  ZINC000047262406   -0.2000
     23 C23        -2.3303    3.0607   52.6686 C.ar    1  ZINC000047262406   -0.0400
     24 C24        -1.7839    2.7870   51.4215 C.ar    1  ZINC000047262406   -0.1200
     25 Cl25       -0.1470    3.2403   51.0622 Cl      1  ZINC000047262406   -0.0500
     26 C26        -2.5572    2.1492   50.4697 C.ar    1  ZINC000047262406    0.1500
     27 N27        -3.8000    1.7957   50.7346 N.ar    1  ZINC000047262406   -0.4600
     28 C28        -8.1123    0.6078   52.7234 C.3     1  ZINC000047262406   -0.1100
     29 C29        -9.5688    0.2362   53.0103 C.3     1  ZINC000047262406    0.0600
     30 H30       -12.4568    3.1343   53.2850 H       1  ZINC000047262406    0.0800
     31 H31       -13.4488    2.1749   54.4092 H       1  ZINC000047262406    0.0700
     32 H32       -11.8869    2.8390   54.9453 H       1  ZINC000047262406    0.0800
     33 H33        -9.2632    0.3921   58.1797 H       1  ZINC000047262406    0.1600
     34 H34        -8.6732   -0.5085   60.4812 H       1  ZINC000047262406    0.1600
     35 H35       -10.0156   -2.5393   61.1909 H       1  ZINC000047262406    0.1800
     36 H36       -10.7553    1.7411   51.1772 H       1  ZINC000047262406    0.0400
     37 H37       -10.9676    3.1862   52.1942 H       1  ZINC000047262406    0.0900
     38 H38        -8.9147    3.3521   50.8022 H       1  ZINC000047262406    0.0800
     39 H39        -8.5192    3.3122   52.5380 H       1  ZINC000047262406    0.0900
     40 H40        -8.4282    0.9408   50.6162 H       1  ZINC000047262406    0.1000
     41 H41        -5.9095    1.2025   52.9683 H       1  ZINC000047262406    0.4200
     42 H42        -4.0954    2.8794   53.8720 H       1  ZINC000047262406    0.1500
     43 H43        -1.7477    3.5582   53.4298 H       1  ZINC000047262406    0.1500
     44 H44        -2.1373    1.9343   49.4981 H       1  ZINC000047262406    0.1700
     45 H45        -7.5322   -0.2991   52.5526 H       1  ZINC000047262406    0.0700
     46 H46        -7.7002    1.1491   53.5750 H       1  ZINC000047262406    0.0800
     47 H47        -9.6158   -0.3836   53.9057 H       1  ZINC000047262406    0.0700
     48 H48        -9.9760   -0.3171   52.1640 H       1  ZINC000047262406    0.0400
@<TRIPOS>BOND
     1     1     2    1
     2     1    30    1
     3     1    31    1
     4     1    32    1
     5     2     3    1
     6     2     4    1
     7     2    14    1
     8     4    13    1
     9     4     5    2
    10     5     6    1
    11     6     7    2
    12     7     8    1
    13     7    13    1
    14     8    12    1
    15     8     9    2
    16     9    10    1
    17     9    33    1
    18    10    11    2
    19    10    34    1
    20    11    12    1
    21    11    35    1
    22    14    29    1
    23    14    15    1
    24    15    16    1
    25    15    36    1
    26    15    37    1
    27    16    17    1
    28    16    38    1
    29    16    39    1
    30    17    18    1
    31    17    28    1
    32    17    40    1
    33    18    19    2
    34    18    20   am
    35    20    21    1
    36    20    41    1
    37    21    27   ar
    38    21    22   ar
    39    22    23   ar
    40    22    42    1
    41    23    24   ar
    42    23    43    1
    43    24    25    1
    44    24    26   ar
    45    26    27   ar
    46    26    44    1
    47    28    29    1
    48    28    45    1
    49    28    46    1
    50    29    47    1
    51    29    48    1
@<TRIPOS>SUBSTRUCTURE
     1 ZINC000047262406        1 TEMP              0 ****  ****    0 ROOT


##########                                Name:    ZINC000188380122
##########                DOCK_Rotatable_Bonds:                   6
##########                         Heavy_Atoms:                  27
##########                    Molecular_Weight:             396.433
##########                DOCK_Rotatable_Bonds:                   6
##########                       Formal_Charge:           0.0299998
##########                     HBond_Acceptors:                   8
##########                        HBond_Donors:                   1
##########                         Heavy_Atoms:                  27
##########                          Grid_Score:          -30.392246
##########                     Grid_vdw_energy:          -29.352406
##########                      Grid_es_energy:           -1.039840
##########           Internal_energy_repulsive:           10.171158

@<TRIPOS>MOLECULE
ZINC000188380122
 46 49 1 0 0
SMALL
USER_CHARGES


@<TRIPOS>ATOM
      1 O1        -12.0122   -4.3410   57.0282 O.2     1  ZINC000188380122   -0.5200
      2 C2        -11.4013   -3.3417   57.3432 C.2     1  ZINC000188380122    0.5200
      3 C3        -10.5456   -3.3415   58.5837 C.3     1  ZINC000188380122   -0.0700
      4 C4        -11.1369   -2.4008   59.6017 C.2     1  ZINC000188380122    0.0900
      5 C5        -12.4449   -2.1252   59.6386 C.2     1  ZINC000188380122   -0.2400
      6 S6        -12.7329   -0.9946   60.9597 S.3     1  ZINC000188380122    0.1000
      7 C7        -11.0125   -1.0080   61.3395 C.2     1  ZINC000188380122    0.1100
      8 C8        -10.3680   -0.2421   62.4277 C.ar    1  ZINC000188380122   -0.0200
      9 C9         -8.9866   -0.3122   62.6108 C.ar    1  ZINC000188380122   -0.0400
     10 C10        -8.3912    0.4053   63.6281 C.ar    1  ZINC000188380122   -0.1200
     11 C11        -9.1609    1.1927   64.4655 C.ar    1  ZINC000188380122   -0.0600
     12 C12       -10.5314    1.2665   64.2891 C.ar    1  ZINC000188380122   -0.1800
     13 C13       -11.3621    2.1271   65.2059 C.3     1  ZINC000188380122    0.5100
     14 F14       -12.6371    1.5679   65.3424 F       1  ZINC000188380122   -0.1700
     15 F15       -10.7479    2.1999   66.4608 F       1  ZINC000188380122   -0.1700
     16 F16       -11.4722    3.4129   64.6654 F       1  ZINC000188380122   -0.1700
     17 C17       -11.1382    0.5585   63.2726 C.ar    1  ZINC000188380122   -0.0500
     18 N18       -10.4006   -1.8052   60.5112 N.2     1  ZINC000188380122   -0.4300
     19 N19       -11.4833   -2.2333   56.5809 N.am    1  ZINC000188380122   -0.7200
     20 C20       -12.3153   -2.2335   55.3751 C.3     1  ZINC000188380122    0.1300
     21 H21       -13.3311   -2.5822   55.5611 H       1  ZINC000188380122    0.1200
     22 C22       -11.6449   -2.9038   54.1627 C.3     1  ZINC000188380122   -0.1800
     23 C23       -12.2665   -1.7848   53.3189 C.3     1  ZINC000188380122    0.0900
     24 H24       -13.2832   -2.0291   53.0109 H       1  ZINC000188380122    0.1200
     25 O25       -11.4912   -1.3460   52.2319 O.3     1  ZINC000188380122   -0.3700
     26 C26       -10.2804   -0.6537   52.4736 C.3     1  ZINC000188380122    0.0700
     27 C27       -10.4820    0.4519   53.5089 C.3     1  ZINC000188380122   -0.1600
     28 C28       -10.9401   -0.1869   54.8236 C.3     1  ZINC000188380122   -0.1100
     29 C29       -12.2502   -0.9145   54.5785 C.3     1  ZINC000188380122   -0.1500
     30 H30       -13.1268   -0.2771   54.6951 H       1  ZINC000188380122    0.0900
     31 H31       -10.5072   -4.3487   58.9988 H       1  ZINC000188380122    0.1100
     32 H32        -9.5373   -3.0146   58.3295 H       1  ZINC000188380122    0.1100
     33 H33       -13.1954   -2.5260   58.9734 H       1  ZINC000188380122    0.1800
     34 H34        -8.3846   -0.9271   61.9582 H       1  ZINC000188380122    0.1500
     35 H35        -7.3221    0.3521   63.7709 H       1  ZINC000188380122    0.1400
     36 H36        -8.6902    1.7518   65.2606 H       1  ZINC000188380122    0.1500
     37 H37       -12.2079    0.6171   63.1359 H       1  ZINC000188380122    0.1400
     38 H38       -10.9916   -1.4354   56.8308 H       1  ZINC000188380122    0.4000
     39 H39       -10.5556   -2.8761   54.1933 H       1  ZINC000188380122    0.0900
     40 H40       -12.0393   -3.8944   53.9360 H       1  ZINC000188380122    0.0800
     41 H41        -9.5328   -1.3566   52.8411 H       1  ZINC000188380122    0.0500
     42 H42        -9.9280   -0.2119   51.5416 H       1  ZINC000188380122    0.1000
     43 H43        -9.5421    0.9808   53.6670 H       1  ZINC000188380122    0.0800
     44 H44       -11.2421    1.1491   53.1564 H       1  ZINC000188380122    0.0800
     45 H45       -10.1868   -0.8956   55.1675 H       1  ZINC000188380122    0.0700
     46 H46       -11.0854    0.5886   55.5756 H       1  ZINC000188380122    0.0800
@<TRIPOS>BOND
     1     1     2    2
     2     2     3    1
     3     2    19   am
     4     3     4    1
     5     3    31    1
     6     3    32    1
     7     4    18    1
     8     4     5    2
     9     5     6    1
    10     5    33    1
    11     6     7    1
    12     7     8    1
    13     7    18    2
    14     8    17   ar
    15     8     9   ar
    16     9    10   ar
    17     9    34    1
    18    10    11   ar
    19    10    35    1
    20    11    12   ar
    21    11    36    1
    22    12    13    1
    23    12    17   ar
    24    13    14    1
    25    13    15    1
    26    13    16    1
    27    17    37    1
    28    19    20    1
    29    19    38    1
    30    20    21    1
    31    20    29    1
    32    20    22    1
    33    22    23    1
    34    22    39    1
    35    22    40    1
    36    23    24    1
    37    23    29    1
    38    23    25    1
    39    25    26    1
    40    26    27    1
    41    26    41    1
    42    26    42    1
    43    27    28    1
    44    27    43    1
    45    27    44    1
    46    28    29    1
    47    28    45    1
    48    28    46    1
    49    29    30    1
@<TRIPOS>SUBSTRUCTURE
     1 ZINC000188380122        1 TEMP              0 ****  ****    0 ROOT


##########                                Name:    ZINC000012979878
##########                DOCK_Rotatable_Bonds:                   7
##########                         Heavy_Atoms:                  26
##########                    Molecular_Weight:             388.874
##########                DOCK_Rotatable_Bonds:                   7
##########                       Formal_Charge:          -0.0100003
##########                     HBond_Acceptors:                   7
##########                        HBond_Donors:                   1
##########                         Heavy_Atoms:                  26
##########                          Grid_Score:          -30.391945
##########                     Grid_vdw_energy:          -29.590509
##########                      Grid_es_energy:           -0.801436
##########           Internal_energy_repulsive:           11.051552

@<TRIPOS>MOLECULE
ZINC000012979878
 43 45 1 0 0
SMALL
USER_CHARGES


@<TRIPOS>ATOM
      1 C1         -3.8664    2.4427   50.1756 C.3     1  <0>         0.0300
      2 O2         -4.7564    1.9615   51.1848 O.3     1  <0>        -0.3100
      3 C3         -6.0752    2.2533   51.0345 C.ar    1  <0>         0.1500
      4 C4         -6.4905    3.0748   49.9960 C.ar    1  <0>        -0.2200
      5 C5         -7.8313    3.3729   49.8421 C.ar    1  <0>        -0.0600
      6 C6         -8.7621    2.8541   50.7207 C.ar    1  <0>        -0.1800
      7 C7         -8.3520    2.0310   51.7624 C.ar    1  <0>         0.1800
      8 N8         -9.2944    1.5057   52.6520 N.am    1  <0>        -0.6700
      9 C9         -9.4885    0.1736   52.7191 C.2     1  <0>         0.6000
     10 O10        -8.8436   -0.5719   52.0055 O.2     1  <0>        -0.4900
     11 C11       -10.4768   -0.3773   53.6521 C.2     1  <0>        -0.3000
     12 C12       -10.5692   -0.0980   54.9766 C.2     1  <0>         0.1600
     13 C13        -9.6324    0.8494   55.6809 C.3     1  <0>        -0.0900
     14 N14       -11.5433   -0.7223   55.5898 N.2     1  <0>        -0.4500
     15 C15       -12.2840   -1.5115   54.8801 C.2     1  <0>         0.0600
     16 C16       -13.4462   -2.3097   55.4122 C.3     1  <0>         0.1300
     17 O17       -12.9868   -3.1968   56.4340 O.3     1  <0>        -0.3000
     18 C18       -13.3900   -2.9352   57.7054 C.ar    1  <0>         0.1300
     19 C19       -14.7148   -3.1297   58.0677 C.ar    1  <0>        -0.2000
     20 C20       -15.1228   -2.8632   59.3603 C.ar    1  <0>        -0.0700
     21 C21       -14.2109   -2.4022   60.2934 C.ar    1  <0>        -0.0700
     22 Cl22      -14.7261   -2.0676   61.9171 Cl      1  <0>        -0.0700
     23 C23       -12.8890   -2.2081   59.9340 C.ar    1  <0>        -0.0700
     24 C24       -12.4759   -2.4789   58.6439 C.ar    1  <0>        -0.1300
     25 S25       -11.7618   -1.5148   53.2523 S.3     1  <0>         0.2000
     26 C26        -7.0068    1.7260   51.9151 C.ar    1  <0>        -0.1500
     27 H27        -4.1509    2.0237   49.2104 H       1  <0>         0.0600
     28 H28        -3.9223    3.5303   50.1304 H       1  <0>         0.0600
     29 H29        -2.8469    2.1411   50.4164 H       1  <0>         0.1000
     30 H30        -5.7649    3.4820   49.3074 H       1  <0>         0.1300
     31 H31        -8.1516    4.0131   49.0335 H       1  <0>         0.1300
     32 H32        -9.8092    3.0886   50.5982 H       1  <0>         0.1300
     33 H33        -9.8084    2.0999   53.2208 H       1  <0>         0.4100
     34 H34       -10.0401    1.8596   55.6417 H       1  <0>         0.0900
     35 H35        -9.5201    0.5431   56.7210 H       1  <0>         0.0800
     36 H36        -8.6597    0.8308   55.1895 H       1  <0>         0.1000
     37 H37       -14.1923   -1.6324   55.8277 H       1  <0>         0.0900
     38 H38       -13.8912   -2.8878   54.6023 H       1  <0>         0.1000
     39 H39       -15.4271   -3.4887   57.3395 H       1  <0>         0.1400
     40 H40       -16.1542   -3.0145   59.6427 H       1  <0>         0.1400
     41 H41       -12.1786   -1.8486   60.6638 H       1  <0>         0.1400
     42 H42       -11.4440   -2.3272   58.3638 H       1  <0>         0.1400
     43 H43        -6.6855    1.0862   52.7236 H       1  <0>         0.1400
@<TRIPOS>BOND
     1     1     2    1
     2     1    27    1
     3     1    28    1
     4     1    29    1
     5     2     3    1
     6     3    26   ar
     7     3     4   ar
     8     4     5   ar
     9     4    30    1
    10     5     6   ar
    11     5    31    1
    12     6     7   ar
    13     6    32    1
    14     7     8    1
    15     7    26   ar
    16     8     9   am
    17     8    33    1
    18     9    10    2
    19     9    11    1
    20    11    25    1
    21    11    12    2
    22    12    13    1
    23    12    14    1
    24    13    34    1
    25    13    35    1
    26    13    36    1
    27    14    15    2
    28    15    16    1
    29    15    25    1
    30    16    17    1
    31    16    37    1
    32    16    38    1
    33    17    18    1
    34    18    24   ar
    35    18    19   ar
    36    19    20   ar
    37    19    39    1
    38    20    21   ar
    39    20    40    1
    40    21    22    1
    41    21    23   ar
    42    23    24   ar
    43    23    41    1
    44    24    42    1
    45    26    43    1
@<TRIPOS>SUBSTRUCTURE
     1 <0>         1 TEMP              0 ****  ****    0 ROOT


##########                                Name:    ZINC001061022329
##########                DOCK_Rotatable_Bonds:                   7
##########                         Heavy_Atoms:                  27
##########                    Molecular_Weight:             374.523
##########                DOCK_Rotatable_Bonds:                   7
##########                       Formal_Charge:           0.0800005
##########                     HBond_Acceptors:                   5
##########                        HBond_Donors:                   0
##########                         Heavy_Atoms:                  27
##########                          Grid_Score:          -30.375443
##########                     Grid_vdw_energy:          -29.437651
##########                      Grid_es_energy:           -0.937792
##########           Internal_energy_repulsive:           25.128872

@<TRIPOS>MOLECULE
ZINC001061022329
 61 64 1 0 0
SMALL
USER_CHARGES


@<TRIPOS>ATOM
      1 C1         -4.0620    5.0980   51.8552 C.3     1  ZINC001061022329   -0.1500
      2 C2         -5.1537    4.0695   51.5526 C.3     1  ZINC001061022329   -0.1200
      3 C3         -4.7987    3.3106   50.2725 C.3     1  ZINC001061022329    0.0800
      4 H4         -4.3369    3.9948   49.5606 H       1  ZINC001061022329    0.0600
      5 C5         -3.8199    2.1821   50.6034 C.3     1  ZINC001061022329   -0.1800
      6 O6         -5.9864    2.7587   49.7009 O.3     1  ZINC001061022329   -0.3500
      7 C7         -6.7941    2.0312   50.6284 C.3     1  ZINC001061022329    0.0500
      8 C8         -8.1050    2.7486   50.8235 C.2     1  ZINC001061022329    0.5200
      9 O9         -8.3794    3.7084   50.1346 O.2     1  ZINC001061022329   -0.5100
     10 N10        -8.9724    2.3236   51.7633 N.am    1  ZINC001061022329   -0.6100
     11 C11       -10.2548    3.0125   51.9593 C.3     1  ZINC001061022329    0.1100
     12 C12       -10.3644    3.4426   53.4270 C.3     1  ZINC001061022329   -0.1200
     13 C13       -10.1070    2.2333   54.3227 C.3     1  ZINC001061022329   -0.0900
     14 C14       -10.4069    2.4916   55.8057 C.3     1  ZINC001061022329    0.1200
     15 N15       -11.0276    1.1517   55.8065 N.am    1  ZINC001061022329   -0.6400
     16 C16       -11.2742    0.2263   56.7549 C.2     1  ZINC001061022329    0.5400
     17 O17       -11.8138   -0.8182   56.4572 O.2     1  ZINC001061022329   -0.5300
     18 C18       -10.8794    0.4897   58.1852 C.3     1  ZINC001061022329   -0.0900
     19 H19       -11.1202    1.5207   58.4444 H       1  ZINC001061022329    0.1000
     20 C20        -9.3752    0.2607   58.3494 C.3     1  ZINC001061022329   -0.1000
     21 C21        -9.1342   -0.8449   59.3851 C.3     1  ZINC001061022329   -0.0600
     22 H22        -8.0700   -1.0603   59.4799 H       1  ZINC001061022329    0.0800
     23 C23        -9.8968   -2.0816   58.9331 C.2     1  ZINC001061022329   -0.1800
     24 C24       -11.2050   -1.8824   58.7903 C.2     1  ZINC001061022329   -0.1300
     25 C25       -11.6472   -0.4627   59.1109 C.3     1  ZINC001061022329   -0.0400
     26 H26       -12.7244   -0.3554   58.9841 H       1  ZINC001061022329    0.0900
     27 C27       -11.2372   -0.1625   60.5593 C.3     1  ZINC001061022329   -0.1100
     28 C28        -9.7179   -0.3836   60.7277 C.3     1  ZINC001061022329   -0.1100
     29 C29       -11.2706    1.2325   54.3524 C.3     1  ZINC001061022329    0.1100
     30 C30        -8.7480    1.5823   54.0780 C.3     1  ZINC001061022329   -0.1100
     31 C31        -8.6514    1.1613   52.6021 C.3     1  ZINC001061022329    0.1100
     32 H32        -3.1084    4.5871   51.9884 H       1  ZINC001061022329    0.0500
     33 H33        -3.9850    5.8008   51.0257 H       1  ZINC001061022329    0.0600
     34 H34        -4.3150    5.6387   52.7672 H       1  ZINC001061022329    0.0600
     35 H35        -5.2307    3.3667   52.3822 H       1  ZINC001061022329    0.0800
     36 H36        -6.1073    4.5804   51.4195 H       1  ZINC001061022329    0.0700
     37 H37        -3.5670    1.6414   49.6914 H       1  ZINC001061022329    0.0600
     38 H38        -2.9140    2.6030   51.0393 H       1  ZINC001061022329    0.0700
     39 H39        -4.2817    1.4978   51.3152 H       1  ZINC001061022329    0.0700
     40 H40        -6.9820    1.0304   50.2396 H       1  ZINC001061022329    0.0800
     41 H41        -6.2742    1.9583   51.5837 H       1  ZINC001061022329    0.0800
     42 H42       -10.2991    3.8918   51.3165 H       1  ZINC001061022329    0.0900
     43 H43       -11.0740    2.3364   51.7143 H       1  ZINC001061022329    0.0800
     44 H44        -9.6248    4.2153   53.6365 H       1  ZINC001061022329    0.0800
     45 H45       -11.3642    3.8320   53.6189 H       1  ZINC001061022329    0.0800
     46 H46        -9.5153    2.5636   56.4286 H       1  ZINC001061022329    0.0800
     47 H47       -11.1136    3.3037   55.9765 H       1  ZINC001061022329    0.0900
     48 H48        -8.9469   -0.0384   57.3927 H       1  ZINC001061022329    0.0700
     49 H49        -8.9022    1.1832   58.6862 H       1  ZINC001061022329    0.0700
     50 H50        -9.4207   -3.0326   58.7454 H       1  ZINC001061022329    0.1200
     51 H51       -11.8889   -2.6567   58.4756 H       1  ZINC001061022329    0.1200
     52 H52       -11.4744    0.8746   60.7963 H       1  ZINC001061022329    0.0700
     53 H53       -11.7808   -0.8228   61.2349 H       1  ZINC001061022329    0.0700
     54 H54        -9.5441   -1.1523   61.4807 H       1  ZINC001061022329    0.0700
     55 H55        -9.2484    0.5476   61.0446 H       1  ZINC001061022329    0.0700
     56 H56       -12.2340    1.6706   54.0912 H       1  ZINC001061022329    0.0900
     57 H57       -11.0656    0.3038   53.8200 H       1  ZINC001061022329    0.0800
     58 H58        -7.9558    2.2946   54.3087 H       1  ZINC001061022329    0.0800
     59 H59        -8.6453    0.7030   54.7139 H       1  ZINC001061022329    0.0800
     60 H60        -9.3584    0.3554   52.4050 H       1  ZINC001061022329    0.0700
     61 H61        -7.6385    0.8231   52.3840 H       1  ZINC001061022329    0.1000
@<TRIPOS>BOND
     1     1     2    1
     2     1    32    1
     3     1    33    1
     4     1    34    1
     5     2     3    1
     6     2    35    1
     7     2    36    1
     8     3     4    1
     9     3     5    1
    10     3     6    1
    11     5    37    1
    12     5    38    1
    13     5    39    1
    14     6     7    1
    15     7     8    1
    16     7    40    1
    17     7    41    1
    18     8     9    2
    19     8    10   am
    20    10    31    1
    21    10    11    1
    22    11    12    1
    23    11    42    1
    24    11    43    1
    25    12    13    1
    26    12    44    1
    27    12    45    1
    28    13    29    1
    29    13    14    1
    30    13    30    1
    31    14    15    1
    32    14    46    1
    33    14    47    1
    34    15    16   am
    35    15    29    1
    36    16    17    2
    37    16    18    1
    38    18    19    1
    39    18    25    1
    40    18    20    1
    41    20    21    1
    42    20    48    1
    43    20    49    1
    44    21    22    1
    45    21    28    1
    46    21    23    1
    47    23    24    2
    48    23    50    1
    49    24    25    1
    50    24    51    1
    51    25    26    1
    52    25    27    1
    53    27    28    1
    54    27    52    1
    55    27    53    1
    56    28    54    1
    57    28    55    1
    58    29    56    1
    59    29    57    1
    60    30    31    1
    61    30    58    1
    62    30    59    1
    63    31    60    1
    64    31    61    1
@<TRIPOS>SUBSTRUCTURE
     1 ZINC001061022329        1 TEMP              0 ****  ****    0 ROOT


##########                                Name:    ZINC000373864439
##########                DOCK_Rotatable_Bonds:                   7
##########                         Heavy_Atoms:                  23
##########                    Molecular_Weight:              344.45
##########                DOCK_Rotatable_Bonds:                   7
##########                       Formal_Charge:          -0.0300001
##########                     HBond_Acceptors:                   7
##########                        HBond_Donors:                   1
##########                         Heavy_Atoms:                  23
##########                          Grid_Score:          -30.346649
##########                     Grid_vdw_energy:          -27.256233
##########                      Grid_es_energy:           -3.090416
##########           Internal_energy_repulsive:           23.272156

@<TRIPOS>MOLECULE
ZINC000373864439
 48 49 1 0 0
SMALL
USER_CHARGES


@<TRIPOS>ATOM
      1 C1         -9.4342    2.4365   66.2254 C.3     1  ZINC000373864439   -0.1500
      2 C2         -9.2049    1.0179   66.7507 C.3     1  ZINC000373864439   -0.6300
      3 S3         -7.6145    0.3961   66.1386 S.o2    1  ZINC000373864439    2.6100
      4 O4         -6.5762    1.3265   66.4137 O.2     1  ZINC000373864439   -0.9500
      5 O5         -7.4646   -0.9822   66.4502 O.2     1  ZINC000373864439   -0.9600
      6 N6         -7.7653    0.4280   64.4898 N.am    1  ZINC000373864439   -1.1200
      7 C7         -8.8158   -0.3555   63.8350 C.3     1  ZINC000373864439    0.1100
      8 C8         -9.4771    0.4892   62.7442 C.3     1  ZINC000373864439    0.0500
      9 N9        -10.4897   -0.3156   62.0480 N.3     1  ZINC000373864439   -0.5300
     10 C10        -9.9051   -1.0162   60.8973 C.3     1  ZINC000373864439    0.0400
     11 C11       -10.9483   -1.9541   60.2856 C.3     1  ZINC000373864439   -0.1300
     12 C12       -12.1660   -1.1372   59.8448 C.3     1  ZINC000373864439    0.1800
     13 F13       -11.7834   -0.2242   58.8562 F       1  ZINC000373864439   -0.2100
     14 C14       -13.2209   -2.0623   59.2949 C.ar    1  ZINC000373864439   -0.1500
     15 C15       -14.4083   -2.2401   59.9776 C.ar    1  ZINC000373864439   -0.0700
     16 C16       -15.3766   -3.0892   59.4737 C.ar    1  ZINC000373864439   -0.1600
     17 C17       -15.1590   -3.7618   58.2857 C.ar    1  ZINC000373864439   -0.0700
     18 C18       -13.9730   -3.5871   57.5987 C.ar    1  ZINC000373864439   -0.2100
     19 C19       -13.0024   -2.7318   58.0993 C.ar    1  ZINC000373864439    0.1400
     20 O20       -11.8351   -2.5582   57.4256 O.3     1  ZINC000373864439   -0.3100
     21 C21       -11.5738   -3.4500   56.3400 C.3     1  ZINC000373864439    0.0200
     22 C22       -12.7266   -0.3796   61.0516 C.3     1  ZINC000373864439   -0.1300
     23 C23       -11.6319    0.5127   61.6410 C.3     1  ZINC000373864439    0.0600
     24 H24        -9.4444    2.4232   65.1356 H       1  ZINC000373864439    0.0700
     25 H25       -10.3898    2.8101   66.5933 H       1  ZINC000373864439    0.0800
     26 H26        -8.6316    3.0869   66.5733 H       1  ZINC000373864439    0.0700
     27 H27        -9.1946    1.0312   67.8406 H       1  ZINC000373864439    0.1300
     28 H28       -10.0075    0.3675   66.4028 H       1  ZINC000373864439    0.1300
     29 H29        -7.1580    0.9655   63.9576 H       1  ZINC000373864439    0.4200
     30 H30        -8.3781   -1.2482   63.3880 H       1  ZINC000373864439    0.0700
     31 H31        -9.5639   -0.6477   64.5719 H       1  ZINC000373864439    0.0900
     32 H32        -9.9528    1.3593   63.1968 H       1  ZINC000373864439    0.0900
     33 H33        -8.7212    0.8183   62.0310 H       1  ZINC000373864439    0.0400
     34 H34        -9.5896   -0.2876   60.1505 H       1  ZINC000373864439    0.0400
     35 H35        -9.0428   -1.5966   61.2253 H       1  ZINC000373864439    0.0900
     36 H36       -10.5190   -2.4623   59.4222 H       1  ZINC000373864439    0.0800
     37 H37       -11.2542   -2.6916   61.0277 H       1  ZINC000373864439    0.1000
     38 H38       -14.5807   -1.7158   60.9060 H       1  ZINC000373864439    0.1300
     39 H39       -16.3041   -3.2274   60.0094 H       1  ZINC000373864439    0.1300
     40 H40       -15.9165   -4.4247   57.8944 H       1  ZINC000373864439    0.1300
     41 H41       -13.8034   -4.1130   56.6708 H       1  ZINC000373864439    0.1300
     42 H42       -10.6124   -3.2027   55.8899 H       1  ZINC000373864439    0.1000
     43 H43       -11.5488   -4.4751   56.7099 H       1  ZINC000373864439    0.0600
     44 H44       -12.3608   -3.3527   55.5923 H       1  ZINC000373864439    0.0600
     45 H45       -13.5678    0.2373   60.7353 H       1  ZINC000373864439    0.0800
     46 H46       -13.0604   -1.0923   61.8056 H       1  ZINC000373864439    0.1000
     47 H47       -12.0237    1.0428   62.5091 H       1  ZINC000373864439    0.0800
     48 H48       -11.3083    1.2342   60.8908 H       1  ZINC000373864439    0.0400
@<TRIPOS>BOND
     1     1     2    1
     2     1    24    1
     3     1    25    1
     4     1    26    1
     5     2     3    1
     6     2    27    1
     7     2    28    1
     8     3     4    2
     9     3     5    2
    10     3     6   am
    11     6     7    1
    12     6    29    1
    13     7     8    1
    14     7    30    1
    15     7    31    1
    16     8     9    1
    17     8    32    1
    18     8    33    1
    19     9    23    1
    20     9    10    1
    21    10    11    1
    22    10    34    1
    23    10    35    1
    24    11    12    1
    25    11    36    1
    26    11    37    1
    27    12    13    1
    28    12    14    1
    29    12    22    1
    30    14    19   ar
    31    14    15   ar
    32    15    16   ar
    33    15    38    1
    34    16    17   ar
    35    16    39    1
    36    17    18   ar
    37    17    40    1
    38    18    19   ar
    39    18    41    1
    40    19    20    1
    41    20    21    1
    42    21    42    1
    43    21    43    1
    44    21    44    1
    45    22    23    1
    46    22    45    1
    47    22    46    1
    48    23    47    1
    49    23    48    1
@<TRIPOS>SUBSTRUCTURE
     1 ZINC000373864439        1 TEMP              0 ****  ****    0 ROOT


##########                                Name:    ZINC000883773972
##########                DOCK_Rotatable_Bonds:                   4
##########                         Heavy_Atoms:                  23
##########                    Molecular_Weight:             343.447
##########                DOCK_Rotatable_Bonds:                   4
##########                       Formal_Charge:                0.01
##########                     HBond_Acceptors:                   8
##########                        HBond_Donors:                   1
##########                         Heavy_Atoms:                  23
##########                          Grid_Score:          -30.344074
##########                     Grid_vdw_energy:          -28.317863
##########                      Grid_es_energy:           -2.026212
##########           Internal_energy_repulsive:           16.491823

@<TRIPOS>MOLECULE
ZINC000883773972
 48 50 1 0 0
SMALL
USER_CHARGES


@<TRIPOS>ATOM
      1 C1          0.5590    4.0268   51.8178 C.3     1  ZINC000883773972   -0.1700
      2 C2         -0.3799    3.8675   50.6498 C.2     1  ZINC000883773972    0.5300
      3 O3          0.0116    4.0856   49.5229 O.2     1  ZINC000883773972   -0.5400
      4 N4         -1.6547    3.4826   50.8577 N.am    1  ZINC000883773972   -0.6200
      5 C5         -2.2837    3.1855   52.1551 C.3     1  ZINC000883773972    0.1100
      6 C6         -3.7654    3.5729   52.0175 C.3     1  ZINC000883773972   -0.1100
      7 H7         -3.9841    4.5215   52.5078 H       1  ZINC000883773972    0.1000
      8 C8         -4.6428    2.4323   52.5601 C.3     1  ZINC000883773972    0.1300
      9 N9         -5.6729    2.1795   51.5393 N.am    1  ZINC000883773972   -0.6400
     10 C10        -6.9320    1.7494   51.7547 C.2     1  ZINC000883773972    0.7300
     11 O11        -7.6861    1.5817   50.8158 O.2     1  ZINC000883773972   -0.5800
     12 N12        -7.3550    1.5053   53.0109 N.am    1  ZINC000883773972   -0.7400
     13 C13        -8.7241    1.0395   53.2451 C.3     1  ZINC000883773972    0.1800
     14 H14        -8.8639    0.8478   54.3091 H       1  ZINC000883773972    0.1100
     15 C15        -9.7090    2.1125   52.7901 C.3     1  ZINC000883773972   -0.1500
     16 C16       -11.1248    1.7710   53.2455 C.3     1  ZINC000883773972   -0.1000
     17 C17       -11.6493    0.5649   52.4629 C.3     1  ZINC000883773972   -0.5600
     18 H18       -11.5989    0.7735   51.3943 H       1  ZINC000883773972    0.1400
     19 C19       -13.0997    0.2867   52.8625 C.3     1  ZINC000883773972   -0.1400
     20 S20       -10.6216   -0.8827   52.8487 S.o2    1  ZINC000883773972    2.4200
     21 O21       -10.6986   -1.1360   54.2449 O.2     1  ZINC000883773972   -0.9200
     22 O22       -10.9400   -1.9230   51.9347 O.2     1  ZINC000883773972   -0.9300
     23 C23        -8.9622   -0.2527   52.4607 C.3     1  ZINC000883773972   -0.6300
     24 C24        -5.0593    2.4880   50.2372 C.3     1  ZINC000883773972    0.1100
     25 C25        -4.0323    3.6337   50.4934 C.3     1  ZINC000883773972   -0.1100
     26 H26        -4.4130    4.6008   50.1650 H       1  ZINC000883773972    0.1000
     27 C27        -2.6920    3.2834   49.8323 C.3     1  ZINC000883773972    0.1100
     28 H28         1.5382    4.3413   51.4565 H       1  ZINC000883773972    0.0900
     29 H29         0.1649    4.7793   52.5008 H       1  ZINC000883773972    0.0900
     30 H30         0.6532    3.0751   52.3407 H       1  ZINC000883773972    0.0900
     31 H31        -2.1941    2.1226   52.3797 H       1  ZINC000883773972    0.0800
     32 H32        -1.8142    3.7756   52.9423 H       1  ZINC000883773972    0.0900
     33 H33        -4.0400    1.5371   52.7132 H       1  ZINC000883773972    0.0700
     34 H34        -5.1108    2.7336   53.4973 H       1  ZINC000883773972    0.0900
     35 H35        -6.7530    1.6378   53.7598 H       1  ZINC000883773972    0.4000
     36 H36        -9.4165    3.0723   53.2158 H       1  ZINC000883773972    0.0900
     37 H37        -9.6881    2.1812   51.7025 H       1  ZINC000883773972    0.0800
     38 H38       -11.1157    1.5356   54.3096 H       1  ZINC000883773972    0.0900
     39 H39       -11.7771    2.6267   53.0712 H       1  ZINC000883773972    0.0900
     40 H40       -13.7124    1.1595   52.6370 H       1  ZINC000883773972    0.0800
     41 H41       -13.4719   -0.5725   52.3045 H       1  ZINC000883773972    0.0700
     42 H42       -13.1480    0.0749   53.9307 H       1  ZINC000883773972    0.0800
     43 H43        -8.8891   -0.0518   51.3918 H       1  ZINC000883773972    0.1400
     44 H44        -8.2150   -0.9932   52.7458 H       1  ZINC000883773972    0.1400
     45 H45        -4.5547    1.6060   49.8429 H       1  ZINC000883773972    0.0800
     46 H46        -5.8211    2.8287   49.5360 H       1  ZINC000883773972    0.0800
     47 H47        -2.5206    3.9276   48.9698 H       1  ZINC000883773972    0.0900
     48 H48        -2.6882    2.2376   49.5252 H       1  ZINC000883773972    0.0700
@<TRIPOS>BOND
     1     1     2    1
     2     1    28    1
     3     1    29    1
     4     1    30    1
     5     2     3    2
     6     2     4   am
     7     4    27    1
     8     4     5    1
     9     5     6    1
    10     5    31    1
    11     5    32    1
    12     6     7    1
    13     6    25    1
    14     6     8    1
    15     8     9    1
    16     8    33    1
    17     8    34    1
    18     9    10   am
    19     9    24    1
    20    10    11    2
    21    10    12   am
    22    12    13    1
    23    12    35    1
    24    13    14    1
    25    13    23    1
    26    13    15    1
    27    15    16    1
    28    15    36    1
    29    15    37    1
    30    16    17    1
    31    16    38    1
    32    16    39    1
    33    17    18    1
    34    17    19    1
    35    17    20    1
    36    19    40    1
    37    19    41    1
    38    19    42    1
    39    20    21    2
    40    20    22    2
    41    20    23    1
    42    23    43    1
    43    23    44    1
    44    24    25    1
    45    24    45    1
    46    24    46    1
    47    25    26    1
    48    25    27    1
    49    27    47    1
    50    27    48    1
@<TRIPOS>SUBSTRUCTURE
     1 ZINC000883773972        1 TEMP              0 ****  ****    0 ROOT


##########                                Name:    ZINC000558213406
##########                DOCK_Rotatable_Bonds:                   8
##########                         Heavy_Atoms:                  30
##########                    Molecular_Weight:               408.5
##########                DOCK_Rotatable_Bonds:                   8
##########                       Formal_Charge:          -0.0299987
##########                     HBond_Acceptors:                   7
##########                        HBond_Donors:                   2
##########                         Heavy_Atoms:                  30
##########                          Grid_Score:          -30.300545
##########                     Grid_vdw_energy:          -29.782320
##########                      Grid_es_energy:           -0.518225
##########           Internal_energy_repulsive:            8.797799

@<TRIPOS>MOLECULE
ZINC000558213406
 58 61 1 0 0
SMALL
USER_CHARGES


@<TRIPOS>ATOM
      1 O1        -10.2819    2.0326   57.7832 O.2     1  ZINC000558213406   -0.5700
      2 C2         -9.2354    2.0014   58.4015 C.2     1  ZINC000558213406    0.7100
      3 N3         -9.1784    1.3864   59.5993 N.am    1  ZINC000558213406   -0.6800
      4 C4        -10.3268    0.7878   60.1350 C.ar    1  ZINC000558213406    0.1700
      5 C5        -10.6022   -0.5470   59.8698 C.ar    1  ZINC000558213406   -0.1300
      6 C6        -11.7335   -1.1364   60.3983 C.ar    1  ZINC000558213406   -0.1100
      7 C7        -12.5953   -0.3950   61.1937 C.ar    1  ZINC000558213406    0.0600
      8 O8        -13.7093   -0.9757   61.7134 O.3     1  ZINC000558213406   -0.2500
      9 C9        -14.5994   -1.5335   60.8512 C.ar    1  ZINC000558213406    0.0700
     10 C10       -14.9454   -2.8763   60.9650 C.ar    1  ZINC000558213406   -0.1500
     11 C11       -15.8573   -3.3999   60.0625 C.ar    1  ZINC000558213406   -0.1300
     12 C12       -16.3892   -2.5780   59.0868 C.ar    1  ZINC000558213406    0.0600
     13 N13       -16.0397   -1.3089   59.0060 N.ar    1  ZINC000558213406   -0.4500
     14 C14       -15.1806   -0.7705   59.8482 C.ar    1  ZINC000558213406    0.0800
     15 C15       -12.3202    0.9387   61.4593 C.ar    1  ZINC000558213406   -0.1000
     16 C16       -11.1864    1.5277   60.9357 C.ar    1  ZINC000558213406   -0.1100
     17 N17        -8.1309    2.5770   57.8863 N.am    1  ZINC000558213406   -0.7300
     18 C18        -8.1929    3.2457   56.5842 C.3     1  ZINC000558213406    0.1500
     19 H19        -9.1204    3.8098   56.4857 H       1  ZINC000558213406    0.1100
     20 C20        -6.9636    4.1707   56.3832 C.3     1  ZINC000558213406   -0.1400
     21 C21        -6.8507    4.2065   54.8385 C.3     1  ZINC000558213406    0.1000
     22 N22        -7.2086    2.8445   54.4023 N.am    1  ZINC000558213406   -0.6200
     23 C23        -6.8292    2.2649   53.2462 C.2     1  ZINC000558213406    0.5400
     24 O24        -7.1843    1.1339   52.9898 O.2     1  ZINC000558213406   -0.5300
     25 C25        -5.9638    3.0221   52.2722 C.3     1  ZINC000558213406   -0.1000
     26 C26        -4.4965    2.8909   52.6848 C.3     1  ZINC000558213406   -0.1100
     27 C27        -3.6179    3.6596   51.6959 C.3     1  ZINC000558213406   -0.1200
     28 C28        -3.8061    3.0830   50.2913 C.3     1  ZINC000558213406   -0.1200
     29 C29        -5.2736    3.2142   49.8787 C.3     1  ZINC000558213406   -0.1200
     30 C30        -6.1522    2.4454   50.8676 C.3     1  ZINC000558213406   -0.1100
     31 C31        -8.0519    2.2223   55.4377 C.3     1  ZINC000558213406    0.1000
     32 H32        -8.3426    1.3579   60.0906 H       1  ZINC000558213406    0.4100
     33 H33        -9.9318   -1.1240   59.2501 H       1  ZINC000558213406    0.1300
     34 H34       -11.9478   -2.1747   60.1921 H       1  ZINC000558213406    0.1400
     35 H35       -14.5136   -3.4953   61.7374 H       1  ZINC000558213406    0.1400
     36 H36       -16.1488   -4.4382   60.1208 H       1  ZINC000558213406    0.1400
     37 H37       -17.1004   -2.9807   58.3808 H       1  ZINC000558213406    0.1600
     38 H38       -14.9189    0.2728   59.7508 H       1  ZINC000558213406    0.1700
     39 H39       -12.9914    1.5154   62.0786 H       1  ZINC000558213406    0.1400
     40 H40       -10.9723    2.5658   61.1428 H       1  ZINC000558213406    0.1500
     41 H41        -7.2951    2.5486   58.3776 H       1  ZINC000558213406    0.4000
     42 H42        -7.1541    5.1662   56.7841 H       1  ZINC000558213406    0.0900
     43 H43        -6.0699    3.7356   56.8302 H       1  ZINC000558213406    0.0800
     44 H44        -7.5490    4.9334   54.4239 H       1  ZINC000558213406    0.0700
     45 H45        -5.8305    4.4452   54.5383 H       1  ZINC000558213406    0.0800
     46 H46        -6.2493    4.0741   52.2743 H       1  ZINC000558213406    0.0900
     47 H47        -4.3622    3.3017   53.6856 H       1  ZINC000558213406    0.0600
     48 H48        -4.2111    1.8389   52.6828 H       1  ZINC000558213406    0.0700
     49 H49        -3.9032    4.7116   51.6981 H       1  ZINC000558213406    0.0600
     50 H50        -2.5724    3.5661   51.9899 H       1  ZINC000558213406    0.0700
     51 H51        -3.1802    3.6306   49.5869 H       1  ZINC000558213406    0.0600
     52 H52        -3.5208    2.0310   50.2892 H       1  ZINC000558213406    0.0600
     53 H53        -5.5589    4.2662   49.8808 H       1  ZINC000558213406    0.0600
     54 H54        -5.4077    2.8034   48.8780 H       1  ZINC000558213406    0.0700
     55 H55        -5.8669    1.3934   50.8654 H       1  ZINC000558213406    0.0800
     56 H56        -7.1976    2.5389   50.5736 H       1  ZINC000558213406    0.0600
     57 H57        -7.5742    1.3159   55.8096 H       1  ZINC000558213406    0.0800
     58 H58        -9.0319    1.9844   55.0240 H       1  ZINC000558213406    0.0800
@<TRIPOS>BOND
     1     1     2    2
     2     2     3   am
     3     2    17   am
     4     3     4    1
     5     3    32    1
     6     4    16   ar
     7     4     5   ar
     8     5     6   ar
     9     5    33    1
    10     6     7   ar
    11     6    34    1
    12     7     8    1
    13     7    15   ar
    14     8     9    1
    15     9    14   ar
    16     9    10   ar
    17    10    11   ar
    18    10    35    1
    19    11    12   ar
    20    11    36    1
    21    12    13   ar
    22    12    37    1
    23    13    14   ar
    24    14    38    1
    25    15    16   ar
    26    15    39    1
    27    16    40    1
    28    17    18    1
    29    17    41    1
    30    18    19    1
    31    18    31    1
    32    18    20    1
    33    20    21    1
    34    20    42    1
    35    20    43    1
    36    21    22    1
    37    21    44    1
    38    21    45    1
    39    22    23   am
    40    22    31    1
    41    23    24    2
    42    23    25    1
    43    25    30    1
    44    25    26    1
    45    25    46    1
    46    26    27    1
    47    26    47    1
    48    26    48    1
    49    27    28    1
    50    27    49    1
    51    27    50    1
    52    28    29    1
    53    28    51    1
    54    28    52    1
    55    29    30    1
    56    29    53    1
    57    29    54    1
    58    30    55    1
    59    30    56    1
    60    31    57    1
    61    31    58    1
@<TRIPOS>SUBSTRUCTURE
     1 ZINC000558213406        1 TEMP              0 ****  ****    0 ROOT


##########                                Name:    ZINC000986832075
##########                DOCK_Rotatable_Bonds:                   7
##########                         Heavy_Atoms:                  25
##########                    Molecular_Weight:             347.433
##########                DOCK_Rotatable_Bonds:                   7
##########                       Formal_Charge:          -0.0200006
##########                     HBond_Acceptors:                   6
##########                        HBond_Donors:                   1
##########                         Heavy_Atoms:                  25
##########                          Grid_Score:          -30.290894
##########                     Grid_vdw_energy:          -29.717485
##########                      Grid_es_energy:           -0.573408
##########           Internal_energy_repulsive:           39.557827

@<TRIPOS>MOLECULE
ZINC000986832075
 51 53 1 0 0
SMALL
USER_CHARGES


@<TRIPOS>ATOM
      1 C1        -13.0019   -0.6189   51.9949 C.3     1  ZINC000986832075   -0.1700
      2 C2        -11.7443   -1.0546   52.7495 C.3     1  ZINC000986832075    0.1500
      3 H3        -11.3416   -1.9588   52.2930 H       1  ZINC000986832075    0.0900
      4 N4        -10.7424    0.0123   52.6860 N.am    1  ZINC000986832075   -0.7200
      5 C5         -9.4616   -0.2828   52.3881 C.2     1  ZINC000986832075    0.5600
      6 O6         -9.1379   -1.4339   52.1707 O.2     1  ZINC000986832075   -0.5100
      7 C7         -8.4491    0.7949   52.3256 C.ar    1  ZINC000986832075   -0.1300
      8 C8         -8.8138    2.1347   52.4928 C.ar    1  ZINC000986832075   -0.1100
      9 C9         -7.8368    3.1084   52.4269 C.ar    1  ZINC000986832075    0.0900
     10 N10        -6.5758    2.7908   52.2098 N.ar    1  ZINC000986832075   -0.4400
     11 C11        -6.1864    1.5428   52.0465 C.ar    1  ZINC000986832075    0.0700
     12 C12        -7.0976    0.5013   52.1032 C.ar    1  ZINC000986832075    0.1100
     13 F13        -6.6912   -0.7760   51.9349 F       1  ZINC000986832075   -0.1000
     14 C14       -12.0982   -1.3355   54.2113 C.3     1  ZINC000986832075   -0.1000
     15 C15       -11.5457   -2.7043   54.6156 C.3     1  ZINC000986832075   -0.1300
     16 C16       -11.9315   -2.9973   56.0690 C.3     1  ZINC000986832075    0.1100
     17 N17       -11.4705   -1.8869   56.9135 N.am    1  ZINC000986832075   -0.6100
     18 C18       -10.6958   -2.1200   57.9916 C.2     1  ZINC000986832075    0.5200
     19 O19       -10.3729   -3.2547   58.2724 O.2     1  ZINC000986832075   -0.5300
     20 C20       -10.2310   -0.9704   58.8480 C.3     1  ZINC000986832075   -0.0800
     21 H21        -9.7864   -0.2023   58.2152 H       1  ZINC000986832075    0.0900
     22 C22        -9.1895   -1.4704   59.8512 C.3     1  ZINC000986832075   -0.1400
     23 C23       -11.4245   -0.3815   59.6028 C.3     1  ZINC000986832075   -0.1400
     24 C24       -12.6668   -1.2613   59.7569 C.3     1  ZINC000986832075   -0.1800
     25 C25       -11.7681   -0.9882   60.9647 C.3     1  ZINC000986832075   -0.1700
     26 C26       -11.8697   -0.5177   56.5604 C.3     1  ZINC000986832075    0.1000
     27 C27       -11.4845   -0.2526   55.1017 C.3     1  ZINC000986832075   -0.1300
     28 H28       -12.7498   -0.4189   50.9535 H       1  ZINC000986832075    0.0600
     29 H29       -13.7473   -1.4128   52.0423 H       1  ZINC000986832075    0.0700
     30 H30       -13.4047    0.2852   52.4515 H       1  ZINC000986832075    0.0600
     31 H31       -11.0009    0.9313   52.8583 H       1  ZINC000986832075    0.4000
     32 H32        -9.8445    2.4039   52.6705 H       1  ZINC000986832075    0.1500
     33 H33        -8.1098    4.1454   52.5550 H       1  ZINC000986832075    0.1700
     34 H34        -5.1425    1.3289   51.8704 H       1  ZINC000986832075    0.1800
     35 H35       -13.1817   -1.3321   54.3298 H       1  ZINC000986832075    0.0800
     36 H36       -11.9652   -3.4724   53.9659 H       1  ZINC000986832075    0.0700
     37 H37       -10.4598   -2.7006   54.5212 H       1  ZINC000986832075    0.0800
     38 H38       -13.0145   -3.0909   56.1477 H       1  ZINC000986832075    0.0700
     39 H39       -11.4580   -3.9239   56.3931 H       1  ZINC000986832075    0.0900
     40 H40        -9.6057   -2.2988   60.4245 H       1  ZINC000986832075    0.0600
     41 H41        -8.3023   -1.8085   59.3159 H       1  ZINC000986832075    0.0600
     42 H42        -8.9187   -0.6600   60.5281 H       1  ZINC000986832075    0.0700
     43 H43       -11.5788    0.6900   59.4756 H       1  ZINC000986832075    0.1100
     44 H44       -13.6387   -0.7687   59.7310 H       1  ZINC000986832075    0.1000
     45 H45       -12.6338   -2.2596   59.3206 H       1  ZINC000986832075    0.0900
     46 H46       -11.1440   -1.8068   61.3229 H       1  ZINC000986832075    0.0900
     47 H47       -12.1490   -0.3158   61.7334 H       1  ZINC000986832075    0.1000
     48 H48       -12.9477   -0.4092   56.6792 H       1  ZINC000986832075    0.0700
     49 H49       -11.3552    0.1916   57.2089 H       1  ZINC000986832075    0.0900
     50 H50       -10.3992   -0.2721   55.0026 H       1  ZINC000986832075    0.0800
     51 H51       -11.8606    0.7243   54.7979 H       1  ZINC000986832075    0.0800
@<TRIPOS>BOND
     1     1     2    1
     2     1    28    1
     3     1    29    1
     4     1    30    1
     5     2     3    1
     6     2     4    1
     7     2    14    1
     8     4     5   am
     9     4    31    1
    10     5     6    2
    11     5     7    1
    12     7    12   ar
    13     7     8   ar
    14     8     9   ar
    15     8    32    1
    16     9    10   ar
    17     9    33    1
    18    10    11   ar
    19    11    12   ar
    20    11    34    1
    21    12    13    1
    22    14    27    1
    23    14    15    1
    24    14    35    1
    25    15    16    1
    26    15    36    1
    27    15    37    1
    28    16    17    1
    29    16    38    1
    30    16    39    1
    31    17    18   am
    32    17    26    1
    33    18    19    2
    34    18    20    1
    35    20    21    1
    36    20    22    1
    37    20    23    1
    38    22    40    1
    39    22    41    1
    40    22    42    1
    41    23    25    1
    42    23    24    1
    43    23    43    1
    44    24    25    1
    45    24    44    1
    46    24    45    1
    47    25    46    1
    48    25    47    1
    49    26    27    1
    50    26    48    1
    51    26    49    1
    52    27    50    1
    53    27    51    1
@<TRIPOS>SUBSTRUCTURE
     1 ZINC000986832075        1 TEMP              0 ****  ****    0 ROOT


##########                                Name:    ZINC001296589646
##########                DOCK_Rotatable_Bonds:                   8
##########                         Heavy_Atoms:                  29
##########                    Molecular_Weight:             398.548
##########                DOCK_Rotatable_Bonds:                   8
##########                       Formal_Charge:          -0.0200008
##########                     HBond_Acceptors:                   6
##########                        HBond_Donors:                   0
##########                         Heavy_Atoms:                  29
##########                          Grid_Score:          -30.286064
##########                     Grid_vdw_energy:          -30.388477
##########                      Grid_es_energy:            0.102413
##########           Internal_energy_repulsive:           23.578205

@<TRIPOS>MOLECULE
ZINC001296589646
 63 66 1 0 0
SMALL
USER_CHARGES


@<TRIPOS>ATOM
      1 C1         -7.1195   -0.0943   52.0177 C.3     1  ZINC001296589646   -0.1500
      2 C2         -7.4412    1.3115   52.5288 C.3     1  ZINC001296589646    0.0500
      3 O3         -6.9143    2.2808   51.6206 O.3     1  ZINC001296589646   -0.3600
      4 C4         -6.9616    3.6223   52.1104 C.3     1  ZINC001296589646    0.1800
      5 C5         -6.2376    3.7358   53.4272 C.2     1  ZINC001296589646    0.1500
      6 N6         -6.7203    4.2250   54.5341 N.2     1  ZINC001296589646   -0.2600
      7 N7         -5.8343    4.1697   55.4636 N.2     1  ZINC001296589646   -0.3200
      8 C8         -4.7298    3.6379   54.9956 C.2     1  ZINC001296589646    0.3600
      9 N9         -3.5584    3.4163   55.7023 N.3     1  ZINC001296589646   -0.4300
     10 C10        -2.9111    4.6999   56.0759 C.3     1  ZINC001296589646    0.0300
     11 C11        -1.9817    4.2999   57.2492 C.3     1  ZINC001296589646   -0.1200
     12 C12        -2.8177    3.2440   58.0081 C.3     1  ZINC001296589646   -0.1000
     13 H13        -3.3372    3.7051   58.8480 H       1  ZINC001296589646    0.0800
     14 C14        -1.9185    2.1080   58.4999 C.3     1  ZINC001296589646   -0.1400
     15 C15        -3.8322    2.7169   56.9764 C.3     1  ZINC001296589646    0.0500
     16 N16        -4.9544    3.3390   53.6834 N.pl3   1  ZINC001296589646   -0.4600
     17 C17        -4.0127    2.7286   52.7415 C.3     1  ZINC001296589646    0.1000
     18 C18        -2.9530    3.7571   52.3413 C.3     1  ZINC001296589646   -0.1300
     19 C19        -2.0527    3.1652   51.2550 C.3     1  ZINC001296589646   -0.0500
     20 H20        -1.7320    2.1671   51.5529 H       1  ZINC001296589646    0.0800
     21 C21        -2.8291    3.0802   49.9395 C.3     1  ZINC001296589646   -0.1500
     22 C22        -0.8443    4.0463   51.0691 C.ar    1  ZINC001296589646   -0.0800
     23 C23         0.3556    3.4963   50.6584 C.ar    1  ZINC001296589646   -0.1100
     24 C24         1.4640    4.3046   50.4879 C.ar    1  ZINC001296589646   -0.1200
     25 C25         1.3725    5.6629   50.7279 C.ar    1  ZINC001296589646   -0.1200
     26 C26         0.1724    6.2130   51.1378 C.ar    1  ZINC001296589646   -0.1200
     27 C27        -0.9371    5.4054   51.3041 C.ar    1  ZINC001296589646   -0.1200
     28 C28        -8.4296    4.1129   52.2376 C.3     1  ZINC001296589646   -0.1400
     29 C29        -8.7081    4.5867   50.7889 C.3     1  ZINC001296589646    0.0600
     30 O30        -7.4715    5.1624   50.3384 O.3     1  ZINC001296589646   -0.3700
     31 C31        -6.3760    4.6063   51.0748 C.3     1  ZINC001296589646    0.0400
     32 H32        -7.6411   -0.2668   51.0763 H       1  ZINC001296589646    0.0600
     33 H33        -6.0450   -0.1864   51.8599 H       1  ZINC001296589646    0.0700
     34 H34        -7.4433   -0.8311   52.7528 H       1  ZINC001296589646    0.0700
     35 H35        -8.5220    1.4327   52.6028 H       1  ZINC001296589646    0.0500
     36 H36        -6.9918    1.4525   53.5117 H       1  ZINC001296589646    0.0600
     37 H37        -2.3304    5.0949   55.2424 H       1  ZINC001296589646    0.0900
     38 H38        -3.6558    5.4247   56.4050 H       1  ZINC001296589646    0.0600
     39 H39        -1.0555    3.8631   56.8759 H       1  ZINC001296589646    0.0800
     40 H40        -1.7744    5.1591   57.8872 H       1  ZINC001296589646    0.0800
     41 H41        -1.1755    2.5061   59.1911 H       1  ZINC001296589646    0.0600
     42 H42        -2.5248    1.3595   59.0100 H       1  ZINC001296589646    0.0600
     43 H43        -1.4145    1.6493   57.6493 H       1  ZINC001296589646    0.0600
     44 H44        -4.8471    2.9347   57.3089 H       1  ZINC001296589646    0.0800
     45 H45        -3.7041    1.6424   56.8451 H       1  ZINC001296589646    0.0900
     46 H46        -3.5291    1.8736   53.2139 H       1  ZINC001296589646    0.1100
     47 H47        -4.5507    2.3968   51.8534 H       1  ZINC001296589646    0.1000
     48 H48        -3.4423    4.6531   51.9594 H       1  ZINC001296589646    0.0800
     49 H49        -2.3503    4.0153   53.2120 H       1  ZINC001296589646    0.0700
     50 H50        -2.1876    2.6587   49.1655 H       1  ZINC001296589646    0.0600
     51 H51        -3.7030    2.4429   50.0740 H       1  ZINC001296589646    0.0600
     52 H52        -3.1498    4.0785   49.6415 H       1  ZINC001296589646    0.0600
     53 H53         0.4271    2.4351   50.4709 H       1  ZINC001296589646    0.1200
     54 H54         2.4016    3.8747   50.1676 H       1  ZINC001296589646    0.1200
     55 H55         2.2387    6.2941   50.5953 H       1  ZINC001296589646    0.1200
     56 H56         0.1011    7.2741   51.3255 H       1  ZINC001296589646    0.1200
     57 H57        -1.8747    5.8353   51.6243 H       1  ZINC001296589646    0.1200
     58 H58        -9.0940    3.2955   52.5181 H       1  ZINC001296589646    0.1000
     59 H59        -8.5077    4.9399   52.9433 H       1  ZINC001296589646    0.1000
     60 H60        -8.9824    3.7397   50.1600 H       1  ZINC001296589646    0.0700
     61 H61        -9.4992    5.3364   50.7815 H       1  ZINC001296589646    0.0900
     62 H62        -5.8327    5.4010   51.5860 H       1  ZINC001296589646    0.1000
     63 H63        -5.7068    4.0755   50.3977 H       1  ZINC001296589646    0.0800
@<TRIPOS>BOND
     1     1     2    1
     2     1    32    1
     3     1    33    1
     4     1    34    1
     5     2     3    1
     6     2    35    1
     7     2    36    1
     8     3     4    1
     9     4    31    1
    10     4     5    1
    11     4    28    1
    12     5    16    1
    13     5     6    2
    14     6     7    1
    15     7     8    2
    16     8     9    1
    17     8    16    1
    18     9    15    1
    19     9    10    1
    20    10    11    1
    21    10    37    1
    22    10    38    1
    23    11    12    1
    24    11    39    1
    25    11    40    1
    26    12    13    1
    27    12    14    1
    28    12    15    1
    29    14    41    1
    30    14    42    1
    31    14    43    1
    32    15    44    1
    33    15    45    1
    34    16    17    1
    35    17    18    1
    36    17    46    1
    37    17    47    1
    38    18    19    1
    39    18    48    1
    40    18    49    1
    41    19    20    1
    42    19    21    1
    43    19    22    1
    44    21    50    1
    45    21    51    1
    46    21    52    1
    47    22    27   ar
    48    22    23   ar
    49    23    24   ar
    50    23    53    1
    51    24    25   ar
    52    24    54    1
    53    25    26   ar
    54    25    55    1
    55    26    27   ar
    56    26    56    1
    57    27    57    1
    58    28    29    1
    59    28    58    1
    60    28    59    1
    61    29    30    1
    62    29    60    1
    63    29    61    1
    64    30    31    1
    65    31    62    1
    66    31    63    1
@<TRIPOS>SUBSTRUCTURE
     1 ZINC001296589646        1 TEMP              0 ****  ****    0 ROOT


##########                                Name:    ZINC000065993627
##########                DOCK_Rotatable_Bonds:                   7
##########                         Heavy_Atoms:                  28
##########                    Molecular_Weight:             382.462
##########                DOCK_Rotatable_Bonds:                   7
##########                       Formal_Charge:          -0.0200002
##########                     HBond_Acceptors:                   7
##########                        HBond_Donors:                   2
##########                         Heavy_Atoms:                  28
##########                          Grid_Score:          -30.278271
##########                     Grid_vdw_energy:          -27.096373
##########                      Grid_es_energy:           -3.181897
##########           Internal_energy_repulsive:           36.008141

@<TRIPOS>MOLECULE
ZINC000065993627
 54 56 1 0 0
SMALL
USER_CHARGES


@<TRIPOS>ATOM
      1 C1        -10.4734   -0.6921   53.9741 C.3     1  ZINC000065993627   -0.1200
      2 C2         -9.5074    0.4622   53.9022 C.ar    1  ZINC000065993627   -0.0700
      3 C3         -8.7578    0.6648   52.7607 C.ar    1  ZINC000065993627   -0.1800
      4 C4         -7.8674    1.7289   52.6944 C.ar    1  ZINC000065993627    0.2000
      5 N5         -7.1079    1.9346   51.5375 N.pl3   1  ZINC000065993627   -0.6400
      6 C6         -5.7266    1.4510   51.4724 C.3     1  ZINC000065993627    0.1000
      7 C7         -7.6941    2.6335   50.3911 C.3     1  ZINC000065993627    0.0900
      8 C8         -7.7314    2.5885   53.7763 C.ar    1  ZINC000065993627   -0.1800
      9 C9         -8.4815    2.3854   54.9180 C.ar    1  ZINC000065993627   -0.0800
     10 C10        -9.3754    1.3253   54.9818 C.ar    1  ZINC000065993627    0.1100
     11 N11       -10.1370    1.1196   56.1408 N.am    1  ZINC000065993627   -0.6800
     12 C12        -9.5362    0.7240   57.2805 C.2     1  ZINC000065993627    0.7000
     13 O13        -8.3337    0.5454   57.3037 O.2     1  ZINC000065993627   -0.5700
     14 N14       -10.2684    0.5262   58.3946 N.am    1  ZINC000065993627   -0.7400
     15 C15        -9.6152    0.0979   59.6340 C.3     1  ZINC000065993627    0.2100
     16 H16        -8.7065    0.6804   59.7859 H       1  ZINC000065993627    0.1000
     17 C17        -9.2588   -1.3868   59.5359 C.3     1  ZINC000065993627   -0.1600
     18 C18       -10.5506    0.3141   60.7956 C.ar    1  ZINC000065993627   -0.1200
     19 C19       -10.1928    1.1726   61.8190 C.ar    1  ZINC000065993627   -0.0800
     20 C20       -11.0478    1.3728   62.8851 C.ar    1  ZINC000065993627   -0.1500
     21 C21       -12.2678    0.7111   62.9284 C.ar    1  ZINC000065993627    0.1800
     22 N22       -13.1367    0.9122   64.0070 N.am    1  ZINC000065993627   -0.5700
     23 C23       -12.9374    1.8792   65.0973 C.3     1  ZINC000065993627    0.0600
     24 C24       -14.1746    1.6814   65.9941 C.3     1  ZINC000065993627    0.0400
     25 O25       -14.9334    0.6345   65.3224 O.3     1  ZINC000065993627   -0.3200
     26 C26       -14.2887    0.2590   64.2119 C.2     1  ZINC000065993627    0.6400
     27 O27       -14.7051   -0.6021   63.4625 O.2     1  ZINC000065993627   -0.5000
     28 C28       -12.6242   -0.1503   61.8992 C.ar    1  ZINC000065993627   -0.1500
     29 C29       -11.7672   -0.3420   60.8331 C.ar    1  ZINC000065993627   -0.0800
     30 H30       -11.4484   -0.3736   53.6051 H       1  ZINC000065993627    0.0700
     31 H31       -10.1038   -1.5141   53.3611 H       1  ZINC000065993627    0.0700
     32 H32       -10.5671   -1.0237   55.0082 H       1  ZINC000065993627    0.0600
     33 H33        -8.8635   -0.0042   51.9194 H       1  ZINC000065993627    0.1200
     34 H34        -5.7157    0.4344   51.0792 H       1  ZINC000065993627    0.0500
     35 H35        -5.1448    2.1000   50.8179 H       1  ZINC000065993627    0.0700
     36 H36        -5.2915    1.4587   52.4718 H       1  ZINC000065993627    0.0700
     37 H37        -8.6885    2.9935   50.6548 H       1  ZINC000065993627    0.0800
     38 H38        -7.0620    3.4787   50.1190 H       1  ZINC000065993627    0.0500
     39 H39        -7.7678    1.9482   49.5467 H       1  ZINC000065993627    0.0500
     40 H40        -7.0389    3.4157   53.7252 H       1  ZINC000065993627    0.1300
     41 H41        -8.3757    3.0540   55.7596 H       1  ZINC000065993627    0.1500
     42 H42       -11.0963    1.2621   56.1224 H       1  ZINC000065993627    0.4000
     43 H43       -11.2279    0.6674   58.3759 H       1  ZINC000065993627    0.4000
     44 H44        -8.5822   -1.5432   58.6957 H       1  ZINC000065993627    0.0700
     45 H45        -8.7728   -1.7056   60.4580 H       1  ZINC000065993627    0.0700
     46 H46       -10.1675   -1.9694   59.3840 H       1  ZINC000065993627    0.0600
     47 H47        -9.2435    1.6866   61.7849 H       1  ZINC000065993627    0.1300
     48 H48       -10.7677    2.0431   63.6842 H       1  ZINC000065993627    0.1600
     49 H49       -12.0248    1.6523   65.6484 H       1  ZINC000065993627    0.1000
     50 H50       -12.9067    2.8962   64.7062 H       1  ZINC000065993627    0.1000
     51 H51       -13.8761    1.3571   66.9910 H       1  ZINC000065993627    0.1100
     52 H52       -14.7578    2.6007   66.0490 H       1  ZINC000065993627    0.1100
     53 H53       -13.5722   -0.6666   61.9303 H       1  ZINC000065993627    0.1300
     54 H54       -12.0439   -1.0115   60.0322 H       1  ZINC000065993627    0.1300
@<TRIPOS>BOND
     1     1     2    1
     2     1    30    1
     3     1    31    1
     4     1    32    1
     5     2    10   ar
     6     2     3   ar
     7     3     4   ar
     8     3    33    1
     9     4     5    1
    10     4     8   ar
    11     5     6    1
    12     5     7    1
    13     6    34    1
    14     6    35    1
    15     6    36    1
    16     7    37    1
    17     7    38    1
    18     7    39    1
    19     8     9   ar
    20     8    40    1
    21     9    10   ar
    22     9    41    1
    23    10    11    1
    24    11    12   am
    25    11    42    1
    26    12    13    2
    27    12    14   am
    28    14    15    1
    29    14    43    1
    30    15    16    1
    31    15    17    1
    32    15    18    1
    33    17    44    1
    34    17    45    1
    35    17    46    1
    36    18    29   ar
    37    18    19   ar
    38    19    20   ar
    39    19    47    1
    40    20    21   ar
    41    20    48    1
    42    21    22    1
    43    21    28   ar
    44    22    26   am
    45    22    23    1
    46    23    24    1
    47    23    49    1
    48    23    50    1
    49    24    25    1
    50    24    51    1
    51    24    52    1
    52    25    26    1
    53    26    27    2
    54    28    29   ar
    55    28    53    1
    56    29    54    1
@<TRIPOS>SUBSTRUCTURE
     1 ZINC000065993627        1 TEMP              0 ****  ****    0 ROOT


##########                                Name:    ZINC000194290865
##########                DOCK_Rotatable_Bonds:                   7
##########                         Heavy_Atoms:                  28
##########                    Molecular_Weight:             387.479
##########                DOCK_Rotatable_Bonds:                   7
##########                       Formal_Charge:          -0.0400003
##########                     HBond_Acceptors:                   7
##########                        HBond_Donors:                   0
##########                         Heavy_Atoms:                  28
##########                          Grid_Score:          -30.265846
##########                     Grid_vdw_energy:          -29.227125
##########                      Grid_es_energy:           -1.038722
##########           Internal_energy_repulsive:           36.757137

@<TRIPOS>MOLECULE
ZINC000194290865
 57 59 1 0 0
SMALL
USER_CHARGES


@<TRIPOS>ATOM
      1 C1         -7.6034   -0.4112   52.0574 C.3     1  ZINC000194290865   -0.1500
      2 C2         -8.5453    0.5399   52.7983 C.3     1  ZINC000194290865    0.0600
      3 O3         -9.6949   -0.2005   53.2867 O.3     1  ZINC000194290865   -0.3600
      4 C4        -10.6335    0.4966   53.9461 C.2     1  ZINC000194290865    0.4700
      5 O5        -10.5223    1.6935   54.0688 O.2     1  ZINC000194290865   -0.4900
      6 C6        -11.8259   -0.2134   54.5335 C.3     1  ZINC000194290865   -0.0600
      7 C7        -13.0410    0.7160   54.5516 C.3     1  ZINC000194290865   -0.0700
      8 C8        -13.4522    1.0461   53.1153 C.3     1  ZINC000194290865   -0.1700
      9 C9        -14.2021    0.0238   55.2682 C.3     1  ZINC000194290865   -0.1600
     10 C10       -12.1391   -1.4949   53.7269 C.3     1  ZINC000194290865   -0.1200
     11 C11       -11.4417   -2.6025   54.5560 C.3     1  ZINC000194290865    0.0900
     12 N12       -11.6662   -2.1717   55.9552 N.am    1  ZINC000194290865   -0.6100
     13 C13       -11.9553   -2.9587   57.0104 C.2     1  ZINC000194290865    0.5800
     14 O14       -12.0563   -4.1607   56.8624 O.2     1  ZINC000194290865   -0.5000
     15 C15       -12.1499   -2.3590   58.3494 C.ar    1  ZINC000194290865    0.0100
     16 C16       -13.4297   -2.2781   58.9312 C.ar    1  ZINC000194290865   -0.2200
     17 C17       -13.5706   -1.7008   60.2050 C.ar    1  ZINC000194290865    0.3000
     18 N18       -12.5070   -1.2402   60.8453 N.ar    1  ZINC000194290865   -0.4700
     19 C19       -11.2991   -1.3022   60.3268 C.ar    1  ZINC000194290865    0.2100
     20 C20       -10.1337   -0.7585   61.1124 C.3     1  ZINC000194290865   -0.1100
     21 C21       -11.0711   -1.8605   59.0794 C.ar    1  ZINC000194290865   -0.1800
     22 O22       -14.8819   -1.7520   60.5146 O.3     1  ZINC000194290865   -0.0800
     23 N23       -15.5922   -2.3571   59.4532 N.2     1  ZINC000194290865   -0.2600
     24 C24       -14.7689   -2.6800   58.5028 C.2     1  ZINC000194290865    0.1600
     25 C25       -15.1272   -3.3456   57.1991 C.3     1  ZINC000194290865   -0.0400
     26 C26       -15.2266   -4.8579   57.4089 C.3     1  ZINC000194290865   -0.1500
     27 C27       -16.4726   -2.8096   56.7056 C.3     1  ZINC000194290865   -0.1400
     28 C28       -11.5074   -0.7054   55.9577 C.3     1  ZINC000194290865    0.1200
     29 H29        -7.2689   -1.1944   52.7377 H       1  ZINC000194290865    0.0700
     30 H30        -8.1299   -0.8615   51.2158 H       1  ZINC000194290865    0.0700
     31 H31        -6.7404    0.1446   51.6907 H       1  ZINC000194290865    0.0800
     32 H32        -8.0188    0.9901   53.6399 H       1  ZINC000194290865    0.0700
     33 H33        -8.8798    1.3230   52.1180 H       1  ZINC000194290865    0.0700
     34 H34       -12.7866    1.6364   55.0773 H       1  ZINC000194290865    0.0900
     35 H35       -12.6251    1.5393   52.6048 H       1  ZINC000194290865    0.0500
     36 H36       -13.7066    0.1256   52.5896 H       1  ZINC000194290865    0.0800
     37 H37       -14.3179    1.7083   53.1282 H       1  ZINC000194290865    0.0600
     38 H38       -13.9092   -0.2114   56.2914 H       1  ZINC000194290865    0.0500
     39 H39       -15.0678    0.6859   55.2811 H       1  ZINC000194290865    0.0600
     40 H40       -14.4565   -0.8967   54.7425 H       1  ZINC000194290865    0.0800
     41 H41       -13.2142   -1.6677   53.6789 H       1  ZINC000194290865    0.0900
     42 H42       -11.7116   -1.4349   52.7260 H       1  ZINC000194290865    0.0900
     43 H43       -11.9070   -3.5710   54.3723 H       1  ZINC000194290865    0.0900
     44 H44       -10.3757   -2.6381   54.3307 H       1  ZINC000194290865    0.0900
     45 H45        -9.7144   -1.5493   61.7345 H       1  ZINC000194290865    0.0900
     46 H46        -9.3705   -0.3938   60.4249 H       1  ZINC000194290865    0.0900
     47 H47       -10.4733    0.0607   61.7462 H       1  ZINC000194290865    0.0900
     48 H48       -10.0711   -1.9011   58.6734 H       1  ZINC000194290865    0.1600
     49 H49       -14.3569   -3.1315   56.4582 H       1  ZINC000194290865    0.1100
     50 H50       -15.9969   -5.0720   58.1498 H       1  ZINC000194290865    0.0700
     51 H51       -15.4858   -5.3393   56.4659 H       1  ZINC000194290865    0.0700
     52 H52       -14.2682   -5.2398   57.7604 H       1  ZINC000194290865    0.0600
     53 H53       -16.4017   -1.7322   56.5561 H       1  ZINC000194290865    0.0600
     54 H54       -16.7316   -3.2910   55.7626 H       1  ZINC000194290865    0.0700
     55 H55       -17.2428   -3.0237   57.4465 H       1  ZINC000194290865    0.0600
     56 H56       -10.4826   -0.4434   56.2205 H       1  ZINC000194290865    0.0800
     57 H57       -12.2018   -0.2581   56.6690 H       1  ZINC000194290865    0.1000
@<TRIPOS>BOND
     1     1     2    1
     2     1    29    1
     3     1    30    1
     4     1    31    1
     5     2     3    1
     6     2    32    1
     7     2    33    1
     8     3     4    1
     9     4     5    2
    10     4     6    1
    11     6    28    1
    12     6     7    1
    13     6    10    1
    14     7     8    1
    15     7     9    1
    16     7    34    1
    17     8    35    1
    18     8    36    1
    19     8    37    1
    20     9    38    1
    21     9    39    1
    22     9    40    1
    23    10    11    1
    24    10    41    1
    25    10    42    1
    26    11    12    1
    27    11    43    1
    28    11    44    1
    29    12    13   am
    30    12    28    1
    31    13    14    2
    32    13    15    1
    33    15    21   ar
    34    15    16   ar
    35    16    24    1
    36    16    17   ar
    37    17    18   ar
    38    17    22    1
    39    18    19   ar
    40    19    20    1
    41    19    21   ar
    42    20    45    1
    43    20    46    1
    44    20    47    1
    45    21    48    1
    46    22    23    1
    47    23    24    2
    48    24    25    1
    49    25    26    1
    50    25    27    1
    51    25    49    1
    52    26    50    1
    53    26    51    1
    54    26    52    1
    55    27    53    1
    56    27    54    1
    57    27    55    1
    58    28    56    1
    59    28    57    1
@<TRIPOS>SUBSTRUCTURE
     1 ZINC000194290865        1 TEMP              0 ****  ****    0 ROOT


##########                                Name:    ZINC001143596311
##########                DOCK_Rotatable_Bonds:                   9
##########                         Heavy_Atoms:                  21
##########                    Molecular_Weight:             335.811
##########                DOCK_Rotatable_Bonds:                   9
##########                       Formal_Charge:          0.00999959
##########                     HBond_Acceptors:                   9
##########                        HBond_Donors:                   3
##########                         Heavy_Atoms:                  21
##########                          Grid_Score:          -30.251528
##########                     Grid_vdw_energy:          -28.749075
##########                      Grid_es_energy:           -1.502454
##########           Internal_energy_repulsive:           13.483245

@<TRIPOS>MOLECULE
ZINC001143596311
 39 39 1 0 0
SMALL
USER_CHARGES


@<TRIPOS>ATOM
      1 C1         -2.0935    2.9453   61.6951 C.3     1  ZINC001143596311    0.0400
      2 O2         -2.1117    2.7770   60.2761 O.3     1  ZINC001143596311   -0.2600
      3 N3         -0.9064    2.1480   59.7359 N.3     1  ZINC001143596311   -0.3700
      4 C4         -0.6562    0.8510   60.3789 C.3     1  ZINC001143596311    0.0000
      5 C5         -0.9967    2.0035   58.2768 C.3     1  ZINC001143596311    0.0400
      6 C6         -1.6445    3.2543   57.6796 C.3     1  ZINC001143596311   -0.1300
      7 C7         -3.1087    2.9608   57.3464 C.3     1  ZINC001143596311    0.1200
      8 N8         -3.2380    2.6867   55.9131 N.am    1  ZINC001143596311   -0.7200
      9 C9         -3.5751    3.6786   55.0652 C.2     1  ZINC001143596311    0.5600
     10 O10        -3.7704    4.8008   55.4894 O.2     1  ZINC001143596311   -0.5200
     11 C11        -3.7072    3.4017   53.6195 C.ar    1  ZINC001143596311   -0.1500
     12 C12        -2.5744    3.3794   52.8039 C.ar    1  ZINC001143596311   -0.0200
     13 C13        -2.7040    3.1204   51.4556 C.ar    1  ZINC001143596311   -0.1300
     14 C14        -3.9547    2.8832   50.9102 C.ar    1  ZINC001143596311    0.0700
     15 Cl15       -4.1099    2.5580   49.2120 Cl      1  ZINC001143596311   -0.0200
     16 C16        -5.0825    2.9040   51.7145 C.ar    1  ZINC001143596311   -0.6800
     17 S17        -6.6695    2.6005   51.0116 S.o2    1  ZINC001143596311    2.7000
     18 N18        -7.7959    2.9593   52.1712 N.am    1  ZINC001143596311   -1.2500
     19 O19        -6.8398    3.5590   49.9765 O.2     1  ZINC001143596311   -0.9400
     20 O20        -6.7504    1.1986   50.7938 O.2     1  ZINC001143596311   -0.9500
     21 C21        -4.9649    3.1557   53.0650 C.ar    1  ZINC001143596311    0.0500
     22 H22        -1.9961    1.9715   62.1752 H       1  ZINC001143596311    0.0400
     23 H23        -1.2489    3.5747   61.9755 H       1  ZINC001143596311    0.0500
     24 H24        -3.0215    3.4179   62.0169 H       1  ZINC001143596311    0.0900
     25 H25        -1.5044    0.1891   60.2039 H       1  ZINC001143596311    0.0400
     26 H26         0.2454    0.4053   59.9588 H       1  ZINC001143596311    0.0900
     27 H27        -0.5240    0.9966   61.4510 H       1  ZINC001143596311    0.0800
     28 H28         0.0033    1.8787   57.8615 H       1  ZINC001143596311    0.0500
     29 H29        -1.6022    1.1299   58.0350 H       1  ZINC001143596311    0.0900
     30 H30        -1.5925    4.0700   58.4007 H       1  ZINC001143596311    0.0800
     31 H31        -1.1150    3.5388   56.7703 H       1  ZINC001143596311    0.0800
     32 H32        -3.4435    2.0925   57.9140 H       1  ZINC001143596311    0.0800
     33 H33        -3.7209    3.8238   57.6081 H       1  ZINC001143596311    0.0800
     34 H34        -3.0810    1.7914   55.5745 H       1  ZINC001143596311    0.4000
     35 H35        -1.5987    3.5649   53.2280 H       1  ZINC001143596311    0.1500
     36 H36        -1.8284    3.1029   50.8236 H       1  ZINC001143596311    0.1600
     37 H37        -8.7409    2.8576   51.9774 H       1  ZINC001143596311    0.4200
     38 H38        -7.5108    3.2712   53.0444 H       1  ZINC001143596311    0.4200
     39 H39        -5.8448    3.1717   53.6910 H       1  ZINC001143596311    0.1700
@<TRIPOS>BOND
     1     1     2    1
     2     1    22    1
     3     1    23    1
     4     1    24    1
     5     2     3    1
     6     3     4    1
     7     3     5    1
     8     4    25    1
     9     4    26    1
    10     4    27    1
    11     5     6    1
    12     5    28    1
    13     5    29    1
    14     6     7    1
    15     6    30    1
    16     6    31    1
    17     7     8    1
    18     7    32    1
    19     7    33    1
    20     8     9   am
    21     8    34    1
    22     9    10    2
    23     9    11    1
    24    11    21   ar
    25    11    12   ar
    26    12    13   ar
    27    12    35    1
    28    13    14   ar
    29    13    36    1
    30    14    15    1
    31    14    16   ar
    32    16    17    1
    33    16    21   ar
    34    17    18   am
    35    17    19    2
    36    17    20    2
    37    18    37    1
    38    18    38    1
    39    21    39    1
@<TRIPOS>SUBSTRUCTURE
     1 ZINC001143596311        1 TEMP              0 ****  ****    0 ROOT


##########                                Name:    ZINC000350493047
##########                DOCK_Rotatable_Bonds:                   7
##########                         Heavy_Atoms:                  24
##########                    Molecular_Weight:             330.387
##########                DOCK_Rotatable_Bonds:                   7
##########                       Formal_Charge:          -0.0300002
##########                     HBond_Acceptors:                   7
##########                        HBond_Donors:                   3
##########                         Heavy_Atoms:                  24
##########                          Grid_Score:          -30.244041
##########                     Grid_vdw_energy:          -27.026480
##########                      Grid_es_energy:           -3.217561
##########           Internal_energy_repulsive:            4.065937

@<TRIPOS>MOLECULE
ZINC000350493047
 46 48 1 0 0
SMALL
USER_CHARGES


@<TRIPOS>ATOM
      1 C1        -10.8454    0.9139   63.6891 C.3     1  <0>        -0.1600
      2 C2         -9.5825    0.1756   63.2408 C.3     1  <0>         0.2600
      3 H3         -9.5052   -0.7703   63.7769 H       1  <0>         0.1200
      4 N4         -8.4063    0.9992   63.5315 N.am    1  <0>        -0.7400
      5 C5         -7.7115    0.8041   64.6696 C.2     1  <0>         0.7100
      6 N6         -6.6284    1.5607   64.9362 N.am    1  <0>        -0.8600
      7 O7         -8.0617   -0.0546   65.4561 O.2     1  <0>        -0.5900
      8 C8         -9.6555   -0.0910   61.7594 C.2     1  <0>         0.1700
      9 N9         -9.9068   -1.2361   61.1970 N.2     1  <0>        -0.3800
     10 O10        -9.8972   -1.1273   59.9890 O.3     1  <0>         0.0900
     11 C11        -9.6291    0.1438   59.6516 C.2     1  <0>         0.2400
     12 C12        -9.5276    0.6907   58.2837 C.ar    1  <0>        -0.0800
     13 C13       -10.2283    0.0896   57.2355 C.ar    1  <0>        -0.0200
     14 C14       -10.1310    0.6028   55.9607 C.ar    1  <0>        -0.2200
     15 C15        -9.3368    1.7165   55.7169 C.ar    1  <0>         0.1700
     16 O16        -9.2432    2.2190   54.4591 O.3     1  <0>        -0.3000
     17 C17        -8.0508    1.9232   53.7292 C.3     1  <0>         0.0800
     18 C18        -8.4004    1.0802   52.5013 C.3     1  <0>        -0.1500
     19 C19        -7.1237    0.7635   51.7198 C.3     1  <0>        -0.1200
     20 C20        -6.4632    2.0686   51.2713 C.3     1  <0>        -0.1300
     21 C21        -6.1137    2.9117   52.4993 C.3     1  <0>        -0.1200
     22 C22        -7.3903    3.2284   53.2807 C.3     1  <0>        -0.1200
     23 C23        -8.6385    2.3175   56.7569 C.ar    1  <0>        -0.1600
     24 C24        -8.7351    1.8140   58.0356 C.ar    1  <0>        -0.0300
     25 N25        -9.4786    0.8118   60.7824 N.2     1  <0>        -0.4700
     26 H26       -10.9228    1.8598   63.1530 H       1  <0>         0.0600
     27 H27       -11.7206    0.3012   63.4728 H       1  <0>         0.0700
     28 H28       -10.7926    1.1068   64.7605 H       1  <0>         0.0800
     29 H29        -8.1276    1.6850   62.9046 H       1  <0>         0.4000
     30 H30        -6.1277    1.4193   65.7549 H       1  <0>         0.4000
     31 H31        -6.3497    2.2465   64.3095 H       1  <0>         0.4200
     32 H32       -10.8453   -0.7765   57.4240 H       1  <0>         0.1400
     33 H33       -10.6725    0.1386   55.1497 H       1  <0>         0.1400
     34 H34        -7.3627    1.3683   54.3670 H       1  <0>         0.0800
     35 H35        -8.8709    0.1503   52.8209 H       1  <0>         0.0700
     36 H36        -9.0885    1.6351   51.8635 H       1  <0>         0.0800
     37 H37        -6.4356    0.2086   52.3576 H       1  <0>         0.0600
     38 H38        -7.3727    0.1629   50.8450 H       1  <0>         0.0700
     39 H39        -5.5537    1.8430   50.7145 H       1  <0>         0.0700
     40 H40        -7.1513    2.6236   50.6335 H       1  <0>         0.0700
     41 H41        -5.4256    2.3567   53.1370 H       1  <0>         0.0700
     42 H42        -5.6432    3.8415   52.1797 H       1  <0>         0.0700
     43 H43        -8.0784    3.7833   52.6429 H       1  <0>         0.0800
     44 H44        -7.1413    3.8290   54.1555 H       1  <0>         0.0700
     45 H45        -8.0225    3.1834   56.5634 H       1  <0>         0.1400
     46 H46        -8.1923    2.2820   58.8436 H       1  <0>         0.1400
@<TRIPOS>BOND
     1     1     2    1
     2     1    26    1
     3     1    27    1
     4     1    28    1
     5     2     3    1
     6     2     4    1
     7     2     8    1
     8     4     5   am
     9     4    29    1
    10     5     6   am
    11     5     7    2
    12     6    30    1
    13     6    31    1
    14     8    25    1
    15     8     9    2
    16     9    10    1
    17    10    11    1
    18    11    12    1
    19    11    25    2
    20    12    24   ar
    21    12    13   ar
    22    13    14   ar
    23    13    32    1
    24    14    15   ar
    25    14    33    1
    26    15    16    1
    27    15    23   ar
    28    16    17    1
    29    17    22    1
    30    17    18    1
    31    17    34    1
    32    18    19    1
    33    18    35    1
    34    18    36    1
    35    19    20    1
    36    19    37    1
    37    19    38    1
    38    20    21    1
    39    20    39    1
    40    20    40    1
    41    21    22    1
    42    21    41    1
    43    21    42    1
    44    22    43    1
    45    22    44    1
    46    23    24   ar
    47    23    45    1
    48    24    46    1
@<TRIPOS>SUBSTRUCTURE
     1 <0>         1 TEMP              0 ****  ****    0 ROOT


##########                                Name:    ZINC000880838037
##########                DOCK_Rotatable_Bonds:                   9
##########                         Heavy_Atoms:                  24
##########                    Molecular_Weight:             365.477
##########                DOCK_Rotatable_Bonds:                   9
##########                       Formal_Charge:           0.0200001
##########                     HBond_Acceptors:                   8
##########                        HBond_Donors:                   3
##########                         Heavy_Atoms:                  24
##########                          Grid_Score:          -30.242975
##########                     Grid_vdw_energy:          -28.652613
##########                      Grid_es_energy:           -1.590363
##########           Internal_energy_repulsive:            8.924266

@<TRIPOS>MOLECULE
ZINC000880838037
 43 44 1 0 0
SMALL
USER_CHARGES


@<TRIPOS>ATOM
      1 C1        -16.4330   -2.8341   58.5378 C.3     1  ZINC000880838037    0.0300
      2 O2        -15.2165   -3.5126   58.8568 O.3     1  ZINC000880838037   -0.3100
      3 C3        -14.1106   -3.1620   58.1491 C.ar    1  ZINC000880838037    0.1400
      4 C4        -13.9547   -3.6012   56.8420 C.ar    1  ZINC000880838037   -0.2200
      5 C5        -12.8305   -3.2454   56.1210 C.ar    1  ZINC000880838037   -0.0700
      6 C6        -11.8585   -2.4523   56.6990 C.ar    1  ZINC000880838037   -0.1500
      7 C7        -12.0091   -2.0102   58.0074 C.ar    1  ZINC000880838037    0.1800
      8 N8        -11.0244   -1.2067   58.5930 N.am    1  ZINC000880838037   -0.6700
      9 C9         -9.9502   -1.7746   59.1760 C.2     1  ZINC000880838037    0.5200
     10 O10        -9.8370   -2.9820   59.1931 O.2     1  ZINC000880838037   -0.4900
     11 C11        -8.8898   -0.9093   59.8066 C.3     1  ZINC000880838037   -0.0600
     12 C12        -8.7958    0.3955   59.0585 C.2     1  ZINC000880838037    0.1000
     13 C13        -9.2686    1.5422   59.5478 C.2     1  ZINC000880838037   -0.2600
     14 S14        -8.9574    2.8113   58.3663 S.3     1  ZINC000880838037    0.1300
     15 C15        -8.2190    1.6747   57.3242 C.2     1  ZINC000880838037    0.0100
     16 S16        -7.5313    2.0501   55.7459 S.3     1  ZINC000880838037    0.1000
     17 C17        -6.6748    3.5962   56.1360 C.3     1  ZINC000880838037   -0.1500
     18 H18        -7.2536    4.1569   56.8700 H       1  ZINC000880838037    0.1200
     19 C19        -6.5217    4.4299   54.8623 C.3     1  ZINC000880838037   -0.1500
     20 C20        -5.3122    3.2870   56.7008 C.2     1  ZINC000880838037    0.5400
     21 N21        -4.4726    4.2909   57.0228 N.am    1  ZINC000880838037   -0.8400
     22 O22        -4.9713    2.1348   56.8654 O.2     1  ZINC000880838037   -0.5200
     23 N23        -8.2335    0.4964   57.8675 N.2     1  ZINC000880838037   -0.4200
     24 C24       -13.1402   -2.3609   58.7305 C.ar    1  ZINC000880838037   -0.1500
     25 C25       -13.3069   -1.8830   60.1501 C.3     1  ZINC000880838037   -0.1000
     26 H26       -16.6854   -3.0128   57.4926 H       1  ZINC000880838037    0.0600
     27 H27       -17.2352   -3.2078   59.1743 H       1  ZINC000880838037    0.1000
     28 H28       -16.3065   -1.7642   58.7033 H       1  ZINC000880838037    0.0600
     29 H29       -14.7127   -4.2220   56.3877 H       1  ZINC000880838037    0.1300
     30 H30       -12.7117   -3.5885   55.1039 H       1  ZINC000880838037    0.1300
     31 H31       -10.9808   -2.1761   56.1335 H       1  ZINC000880838037    0.1400
     32 H32       -11.1151   -0.2411   58.5792 H       1  ZINC000880838037    0.4100
     33 H33        -9.1514   -0.7138   60.8466 H       1  ZINC000880838037    0.1200
     34 H34        -7.9292   -1.4226   59.7640 H       1  ZINC000880838037    0.1200
     35 H35        -9.7577    1.6706   60.5021 H       1  ZINC000880838037    0.1800
     36 H36        -5.9429    3.8692   54.1284 H       1  ZINC000880838037    0.0900
     37 H37        -7.5072    4.6536   54.4539 H       1  ZINC000880838037    0.0800
     38 H38        -6.0059    5.3609   55.0973 H       1  ZINC000880838037    0.0800
     39 H39        -3.5960    4.0919   57.3874 H       1  ZINC000880838037    0.4000
     40 H40        -4.7449    5.2124   56.8899 H       1  ZINC000880838037    0.4100
     41 H41       -13.8259   -0.9245   60.1522 H       1  ZINC000880838037    0.0700
     42 H42       -13.8890   -2.6127   60.7131 H       1  ZINC000880838037    0.0700
     43 H43       -12.3264   -1.7663   60.6116 H       1  ZINC000880838037    0.0600
@<TRIPOS>BOND
     1     1     2    1
     2     1    26    1
     3     1    27    1
     4     1    28    1
     5     2     3    1
     6     3    24   ar
     7     3     4   ar
     8     4     5   ar
     9     4    29    1
    10     5     6   ar
    11     5    30    1
    12     6     7   ar
    13     6    31    1
    14     7     8    1
    15     7    24   ar
    16     8     9   am
    17     8    32    1
    18     9    10    2
    19     9    11    1
    20    11    12    1
    21    11    33    1
    22    11    34    1
    23    12    23    1
    24    12    13    2
    25    13    14    1
    26    13    35    1
    27    14    15    1
    28    15    16    1
    29    15    23    2
    30    16    17    1
    31    17    18    1
    32    17    19    1
    33    17    20    1
    34    19    36    1
    35    19    37    1
    36    19    38    1
    37    20    21   am
    38    20    22    2
    39    21    39    1
    40    21    40    1
    41    24    25    1
    42    25    41    1
    43    25    42    1
    44    25    43    1
@<TRIPOS>SUBSTRUCTURE
     1 ZINC000880838037        1 TEMP              0 ****  ****    0 ROOT


##########                                Name:    ZINC000863246516
##########                DOCK_Rotatable_Bonds:                   5
##########                         Heavy_Atoms:                  25
##########                    Molecular_Weight:             356.489
##########                DOCK_Rotatable_Bonds:                   5
##########                       Formal_Charge:         -0.00999938
##########                     HBond_Acceptors:                   5
##########                        HBond_Donors:                   0
##########                         Heavy_Atoms:                  25
##########                          Grid_Score:          -30.242918
##########                     Grid_vdw_energy:          -29.145983
##########                      Grid_es_energy:           -1.096936
##########           Internal_energy_repulsive:           14.437212

@<TRIPOS>MOLECULE
ZINC000863246516
 49 52 1 0 0
SMALL
USER_CHARGES


@<TRIPOS>ATOM
      1 C1         -1.3358    1.8604   58.4777 C.3     1  ZINC000863246516   -0.0600
      2 C2         -0.8570    2.5494   57.2258 C.2     1  ZINC000863246516   -0.2000
      3 C3         -1.5985    3.1442   56.3017 C.2     1  ZINC000863246516    0.0900
      4 C4         -3.1006    3.2004   56.4089 C.3     1  ZINC000863246516   -0.1000
      5 N5         -0.9352    3.7029   55.2502 N.am    1  ZINC000863246516   -0.5300
      6 C6         -1.6532    4.3863   54.1714 C.3     1  ZINC000863246516    0.1200
      7 C7         -1.4413    3.6298   52.8586 C.3     1  ZINC000863246516   -0.1500
      8 C8         -2.3307    4.2155   51.7922 C.2     1  ZINC000863246516    0.5400
      9 O9         -2.0420    5.2744   51.2760 O.2     1  ZINC000863246516   -0.5300
     10 N10        -3.4470    3.5628   51.4123 N.am    1  ZINC000863246516   -0.6100
     11 C11        -4.3931    4.0239   50.3899 C.3     1  ZINC000863246516    0.1100
     12 C12        -5.2210    2.7958   49.9661 C.3     1  ZINC000863246516   -0.1300
     13 H13        -4.9308    2.3408   49.0192 H       1  ZINC000863246516    0.1000
     14 C14        -6.7295    2.9737   50.2055 C.3     1  ZINC000863246516   -0.1200
     15 C15        -6.4572    2.6729   51.6882 C.3     1  ZINC000863246516   -0.0600
     16 H16        -6.2248    3.5600   52.2774 H       1  ZINC000863246516    0.1000
     17 C17        -7.5081    1.8038   52.3298 C.ar    1  ZINC000863246516   -0.0700
     18 C18        -8.2117    2.2656   53.4264 C.ar    1  ZINC000863246516   -0.1200
     19 C19        -9.1755    1.4683   54.0149 C.ar    1  ZINC000863246516   -0.1200
     20 C20        -9.4360    0.2095   53.5065 C.ar    1  ZINC000863246516   -0.1200
     21 C21        -8.7330   -0.2519   52.4093 C.ar    1  ZINC000863246516   -0.1200
     22 C22        -7.7721    0.5471   51.8182 C.ar    1  ZINC000863246516   -0.1200
     23 C23        -5.1973    1.8890   51.2219 C.3     1  ZINC000863246516   -0.1100
     24 H24        -5.3365    0.8205   51.0574 H       1  ZINC000863246516    0.1200
     25 C25        -3.9029    2.2775   51.9517 C.3     1  ZINC000863246516    0.1200
     26 C26         0.4034    3.6014   55.2442 C.2     1  ZINC000863246516    0.4800
     27 O27         1.1686    4.0318   54.3995 O.2     1  ZINC000863246516   -0.4700
     28 S28         0.8175    2.7438   56.6790 S.3     1  ZINC000863246516    0.0100
     29 H29        -0.4789    1.4772   59.0318 H       1  ZINC000863246516    0.0700
     30 H30        -1.8810    2.5716   59.0981 H       1  ZINC000863246516    0.0800
     31 H31        -1.9936    1.0339   58.2087 H       1  ZINC000863246516    0.0800
     32 H32        -3.4189    2.6955   57.3210 H       1  ZINC000863246516    0.0900
     33 H33        -3.4242    4.2409   56.4378 H       1  ZINC000863246516    0.0800
     34 H34        -3.5453    2.7055   55.5455 H       1  ZINC000863246516    0.0800
     35 H35        -2.7173    4.4168   54.4057 H       1  ZINC000863246516    0.1000
     36 H36        -1.2741    5.4032   54.0701 H       1  ZINC000863246516    0.1000
     37 H37        -0.3992    3.7191   52.5518 H       1  ZINC000863246516    0.1000
     38 H38        -1.6894    2.5780   53.0012 H       1  ZINC000863246516    0.1000
     39 H39        -5.0479    4.7897   50.8058 H       1  ZINC000863246516    0.0700
     40 H40        -3.8507    4.4219   49.5322 H       1  ZINC000863246516    0.0800
     41 H41        -7.0830    3.9888   50.0245 H       1  ZINC000863246516    0.0800
     42 H42        -7.3412    2.2181   49.7127 H       1  ZINC000863246516    0.0900
     43 H43        -8.0082    3.2490   53.8236 H       1  ZINC000863246516    0.1200
     44 H44        -9.7248    1.8288   54.8721 H       1  ZINC000863246516    0.1200
     45 H45       -10.1885   -0.4136   53.9667 H       1  ZINC000863246516    0.1200
     46 H46        -8.9362   -1.2355   52.0123 H       1  ZINC000863246516    0.1200
     47 H47        -7.2228    0.1865   50.9610 H       1  ZINC000863246516    0.1200
     48 H48        -3.1471    1.5075   51.7968 H       1  ZINC000863246516    0.0700
     49 H49        -4.1006    2.3910   53.0176 H       1  ZINC000863246516    0.0700
@<TRIPOS>BOND
     1     1     2    1
     2     1    29    1
     3     1    30    1
     4     1    31    1
     5     2    28    1
     6     2     3    2
     7     3     4    1
     8     3     5    1
     9     4    32    1
    10     4    33    1
    11     4    34    1
    12     5     6    1
    13     5    26   am
    14     6     7    1
    15     6    35    1
    16     6    36    1
    17     7     8    1
    18     7    37    1
    19     7    38    1
    20     8     9    2
    21     8    10   am
    22    10    25    1
    23    10    11    1
    24    11    12    1
    25    11    39    1
    26    11    40    1
    27    12    13    1
    28    12    23    1
    29    12    14    1
    30    14    15    1
    31    14    41    1
    32    14    42    1
    33    15    16    1
    34    15    17    1
    35    15    23    1
    36    17    22   ar
    37    17    18   ar
    38    18    19   ar
    39    18    43    1
    40    19    20   ar
    41    19    44    1
    42    20    21   ar
    43    20    45    1
    44    21    22   ar
    45    21    46    1
    46    22    47    1
    47    23    24    1
    48    23    25    1
    49    25    48    1
    50    25    49    1
    51    26    27    2
    52    26    28    1
@<TRIPOS>SUBSTRUCTURE
     1 ZINC000863246516        1 TEMP              0 ****  ****    0 ROOT


##########                                Name:    ZINC001065334255
##########                DOCK_Rotatable_Bonds:                   7
##########                         Heavy_Atoms:                  23
##########                    Molecular_Weight:             346.448
##########                DOCK_Rotatable_Bonds:                   7
##########                       Formal_Charge:        -5.81145e-07
##########                     HBond_Acceptors:                   8
##########                        HBond_Donors:                   1
##########                         Heavy_Atoms:                  23
##########                          Grid_Score:          -30.228283
##########                     Grid_vdw_energy:          -29.390297
##########                      Grid_es_energy:           -0.837987
##########           Internal_energy_repulsive:           19.729954

@<TRIPOS>MOLECULE
ZINC001065334255
 49 50 1 0 0
SMALL
USER_CHARGES


@<TRIPOS>ATOM
      1 C1         -7.4089    2.4092   53.0800 C.3     1  ZINC001065334255   -0.1500
      2 C2         -7.7495    1.6039   51.8244 C.3     1  ZINC001065334255   -0.0800
      3 C3         -6.5457    1.5980   50.8801 C.3     1  ZINC001065334255   -0.1500
      4 C4         -8.0955    0.1666   52.2186 C.3     1  ZINC001065334255   -0.1400
      5 C5         -9.5679    0.0702   52.5248 C.2     1  ZINC001065334255    0.5100
      6 O6        -10.2359    1.0785   52.6146 O.2     1  ZINC001065334255   -0.5300
      7 N7        -10.1425   -1.1365   52.6988 N.am    1  ZINC001065334255   -0.7300
      8 C8        -11.5742   -1.2302   52.9948 C.3     1  ZINC001065334255    0.1300
      9 C9        -11.7679   -1.5728   54.4733 C.3     1  ZINC001065334255    0.0700
     10 H10       -11.2859   -0.8135   55.0892 H       1  ZINC001065334255    0.0700
     11 C11       -13.2657   -1.6187   54.7962 C.3     1  ZINC001065334255    0.0800
     12 N12       -13.4297   -2.1305   56.1661 N.am    1  ZINC001065334255   -0.6100
     13 C13       -14.1938   -1.4774   57.0639 C.2     1  ZINC001065334255    0.5400
     14 O14       -14.7582   -0.4516   56.7477 O.2     1  ZINC001065334255   -0.5200
     15 C15       -14.3468   -2.0217   58.4608 C.3     1  ZINC001065334255   -0.1100
     16 H16       -13.3699   -2.2800   58.8696 H       1  ZINC001065334255    0.1200
     17 C17       -15.2567   -3.2625   58.4462 C.3     1  ZINC001065334255   -0.1000
     18 C18       -15.6695   -3.5900   59.8950 C.3     1  ZINC001065334255   -0.5900
     19 S19       -15.6271   -1.9874   60.7759 S.o2    1  ZINC001065334255    2.3900
     20 O20       -16.9519   -1.6018   61.1159 O.2     1  ZINC001065334255   -0.9300
     21 O21       -14.6222   -2.0282   61.7797 O.2     1  ZINC001065334255   -0.9300
     22 C22       -15.0409   -0.9720   59.3666 C.3     1  ZINC001065334255   -0.5900
     23 C23       -12.7352   -3.3767   56.5266 C.3     1  ZINC001065334255    0.0600
     24 C24       -11.2632   -3.2451   56.1194 C.3     1  ZINC001065334255    0.0500
     25 O25       -11.1868   -2.8498   54.7477 O.3     1  ZINC001065334255   -0.3700
     26 H26        -7.1623    3.4331   52.7992 H       1  ZINC001065334255    0.0600
     27 H27        -8.2665    2.4134   53.7527 H       1  ZINC001065334255    0.0500
     28 H28        -6.5551    1.9547   53.5825 H       1  ZINC001065334255    0.0600
     29 H29        -8.6033    2.0584   51.3218 H       1  ZINC001065334255    0.0800
     30 H30        -5.6919    1.1435   51.3827 H       1  ZINC001065334255    0.0500
     31 H31        -6.7884    1.0243   49.9857 H       1  ZINC001065334255    0.0700
     32 H32        -6.2992    2.6220   50.5993 H       1  ZINC001065334255    0.0500
     33 H33        -7.8508   -0.5048   51.3955 H       1  ZINC001065334255    0.0900
     34 H34        -7.5216   -0.1163   53.1011 H       1  ZINC001065334255    0.0900
     35 H35        -9.6080   -1.9429   52.6281 H       1  ZINC001065334255    0.4000
     36 H36       -12.0535   -0.2757   52.7772 H       1  ZINC001065334255    0.0900
     37 H37       -12.0221   -2.0103   52.3793 H       1  ZINC001065334255    0.0800
     38 H38       -13.6875   -0.6160   54.7260 H       1  ZINC001065334255    0.1100
     39 H39       -13.7725   -2.2807   54.0940 H       1  ZINC001065334255    0.0900
     40 H40       -16.1456   -3.0581   57.8493 H       1  ZINC001065334255    0.1000
     41 H41       -14.7171   -4.1077   58.0189 H       1  ZINC001065334255    0.1000
     42 H42       -16.6762   -4.0073   59.9166 H       1  ZINC001065334255    0.1500
     43 H43       -14.9604   -4.2866   60.3424 H       1  ZINC001065334255    0.1400
     44 H44       -14.3287   -0.2182   59.7028 H       1  ZINC001065334255    0.1400
     45 H45       -15.8801   -0.5089   58.8479 H       1  ZINC001065334255    0.1500
     46 H46       -12.8055   -3.5382   57.6023 H       1  ZINC001065334255    0.1000
     47 H47       -13.1886   -4.2157   55.9986 H       1  ZINC001065334255    0.0900
     48 H48       -10.7792   -2.4925   56.7419 H       1  ZINC001065334255    0.0600
     49 H49       -10.7620   -4.2041   56.2503 H       1  ZINC001065334255    0.1100
@<TRIPOS>BOND
     1     1     2    1
     2     1    26    1
     3     1    27    1
     4     1    28    1
     5     2     3    1
     6     2     4    1
     7     2    29    1
     8     3    30    1
     9     3    31    1
    10     3    32    1
    11     4     5    1
    12     4    33    1
    13     4    34    1
    14     5     6    2
    15     5     7   am
    16     7     8    1
    17     7    35    1
    18     8     9    1
    19     8    36    1
    20     8    37    1
    21     9    10    1
    22     9    25    1
    23     9    11    1
    24    11    12    1
    25    11    38    1
    26    11    39    1
    27    12    13   am
    28    12    23    1
    29    13    14    2
    30    13    15    1
    31    15    16    1
    32    15    22    1
    33    15    17    1
    34    17    18    1
    35    17    40    1
    36    17    41    1
    37    18    19    1
    38    18    42    1
    39    18    43    1
    40    19    20    2
    41    19    21    2
    42    19    22    1
    43    22    44    1
    44    22    45    1
    45    23    24    1
    46    23    46    1
    47    23    47    1
    48    24    25    1
    49    24    48    1
    50    24    49    1
@<TRIPOS>SUBSTRUCTURE
     1 ZINC001065334255        1 TEMP              0 ****  ****    0 ROOT


##########                                Name:    ZINC000821214121
##########                DOCK_Rotatable_Bonds:                  10
##########                         Heavy_Atoms:                  23
##########                    Molecular_Weight:             338.434
##########                DOCK_Rotatable_Bonds:                  10
##########                       Formal_Charge:          0.00999954
##########                     HBond_Acceptors:                   9
##########                        HBond_Donors:                   3
##########                         Heavy_Atoms:                  23
##########                          Grid_Score:          -30.224644
##########                     Grid_vdw_energy:          -29.465164
##########                      Grid_es_energy:           -0.759479
##########           Internal_energy_repulsive:           13.511859

@<TRIPOS>MOLECULE
ZINC000821214121
 45 46 1 0 0
SMALL
USER_CHARGES


@<TRIPOS>ATOM
      1 C1        -14.4019   -4.1368   56.5313 C.3     1  ZINC000821214121   -0.1500
      2 C2        -13.3145   -3.1972   57.0561 C.3     1  ZINC000821214121    0.0500
      3 N3        -12.0551   -3.4617   56.3477 N.3     1  ZINC000821214121   -0.5200
      4 C4        -11.7390   -2.3742   55.4120 C.3     1  ZINC000821214121    0.0600
      5 C5        -12.2120   -2.7558   54.0079 C.3     1  ZINC000821214121   -0.1200
      6 C6        -11.7695   -1.6826   53.0114 C.3     1  ZINC000821214121    0.0800
      7 O7        -10.3421   -1.6267   52.9741 O.3     1  ZINC000821214121   -0.5700
      8 C8        -10.9535   -3.6779   57.2950 C.3     1  ZINC000821214121    0.0400
      9 C9        -10.9308   -2.5580   58.3032 C.2     1  ZINC000821214121    0.5000
     10 O10       -10.7031   -1.4222   57.9431 O.2     1  ZINC000821214121   -0.4800
     11 N11       -11.1636   -2.8182   59.6049 N.am    1  ZINC000821214121   -0.6300
     12 C12       -11.1443   -1.7823   60.5370 C.2     1  ZINC000821214121    0.0800
     13 C13       -12.2452   -1.2023   61.0935 C.2     1  ZINC000821214121   -0.1000
     14 C14       -13.6298   -1.6170   60.7633 C.2     1  ZINC000821214121    0.2900
     15 N15       -14.2979   -2.6172   61.3086 N.2     1  ZINC000821214121   -0.3300
     16 N16       -15.5560   -2.6255   60.6841 N.pl3   1  ZINC000821214121   -0.2900
     17 N17       -15.5629   -1.6597   59.8302 N.2     1  ZINC000821214121    0.0200
     18 N18       -14.4350   -1.0435   59.8623 N.2     1  ZINC000821214121   -0.2900
     19 C19       -11.9537   -0.1841   62.0010 C.2     1  ZINC000821214121   -0.0500
     20 C20       -13.0277    0.5844   62.7270 C.3     1  ZINC000821214121   -0.1000
     21 C21       -10.6594    0.0581   62.1787 C.2     1  ZINC000821214121   -0.2400
     22 C22       -10.0980    1.1061   63.1048 C.3     1  ZINC000821214121   -0.0800
     23 S23        -9.6956   -1.0244   61.1844 S.3     1  ZINC000821214121    0.2600
     24 H24       -14.4758   -4.0380   55.4482 H       1  ZINC000821214121    0.0700
     25 H25       -14.1470   -5.1656   56.7857 H       1  ZINC000821214121    0.0500
     26 H26       -15.3577   -3.8762   56.9859 H       1  ZINC000821214121    0.0600
     27 H27       -13.6157   -2.1632   56.8881 H       1  ZINC000821214121    0.0900
     28 H28       -13.1731   -3.3655   58.1237 H       1  ZINC000821214121    0.0400
     29 H29       -12.2444   -1.4625   55.7305 H       1  ZINC000821214121    0.0400
     30 H30       -10.6619   -2.2072   55.3996 H       1  ZINC000821214121    0.0800
     31 H31       -11.7773   -3.7148   53.7261 H       1  ZINC000821214121    0.0800
     32 H32       -13.2993   -2.8333   53.9994 H       1  ZINC000821214121    0.0700
     33 H33       -12.1495   -1.9286   52.0199 H       1  ZINC000821214121    0.0400
     34 H34       -12.1630   -0.7145   53.3214 H       1  ZINC000821214121    0.0500
     35 H35        -9.9362   -1.3743   53.8147 H       1  ZINC000821214121    0.3800
     36 H36       -11.0982   -4.6276   57.8101 H       1  ZINC000821214121    0.0700
     37 H37       -10.0076   -3.6987   56.7538 H       1  ZINC000821214121    0.1200
     38 H38       -11.3446   -3.7266   59.8932 H       1  ZINC000821214121    0.4200
     39 H39       -16.2830   -3.2424   60.8617 H       1  ZINC000821214121    0.4700
     40 H40       -13.2623    0.0823   63.6656 H       1  ZINC000821214121    0.0700
     41 H41       -12.6747    1.5947   62.9339 H       1  ZINC000821214121    0.0700
     42 H42       -13.9226    0.6322   62.1068 H       1  ZINC000821214121    0.0900
     43 H43        -9.9389    0.6714   64.0915 H       1  ZINC000821214121    0.0700
     44 H44        -9.1489    1.4689   62.7102 H       1  ZINC000821214121    0.0700
     45 H45       -10.8003    1.9361   63.1823 H       1  ZINC000821214121    0.0800
@<TRIPOS>BOND
     1     1     2    1
     2     1    24    1
     3     1    25    1
     4     1    26    1
     5     2     3    1
     6     2    27    1
     7     2    28    1
     8     3     4    1
     9     3     8    1
    10     4     5    1
    11     4    29    1
    12     4    30    1
    13     5     6    1
    14     5    31    1
    15     5    32    1
    16     6     7    1
    17     6    33    1
    18     6    34    1
    19     7    35    1
    20     8     9    1
    21     8    36    1
    22     8    37    1
    23     9    10    2
    24     9    11   am
    25    11    12    1
    26    11    38    1
    27    12    23    1
    28    12    13    2
    29    13    14    1
    30    13    19    1
    31    14    18    1
    32    14    15    2
    33    15    16    1
    34    16    17    1
    35    16    39    1
    36    17    18    2
    37    19    20    1
    38    19    21    2
    39    20    40    1
    40    20    41    1
    41    20    42    1
    42    21    22    1
    43    21    23    1
    44    22    43    1
    45    22    44    1
    46    22    45    1
@<TRIPOS>SUBSTRUCTURE
     1 ZINC000821214121        1 TEMP              0 ****  ****    0 ROOT


##########                                Name:    ZINC000015179664
##########                DOCK_Rotatable_Bonds:                   8
##########                         Heavy_Atoms:                  25
##########                    Molecular_Weight:             361.422
##########                DOCK_Rotatable_Bonds:                   8
##########                       Formal_Charge:        -2.23517e-07
##########                     HBond_Acceptors:                   8
##########                        HBond_Donors:                   1
##########                         Heavy_Atoms:                  25
##########                          Grid_Score:          -30.205614
##########                     Grid_vdw_energy:          -28.849682
##########                      Grid_es_energy:           -1.355932
##########           Internal_energy_repulsive:           24.737030

@<TRIPOS>MOLECULE
ZINC000015179664
 44 45 1 0 0
SMALL
USER_CHARGES


@<TRIPOS>ATOM
      1 C1         -8.0580    3.3959   50.6347 C.3     1  ZINC000015179664   -0.1600
      2 C2         -7.6541    2.6514   51.9089 C.3     1  ZINC000015179664    0.1800
      3 H3         -8.1129    3.1333   52.7722 H       1  ZINC000015179664    0.1200
      4 C4         -6.1544    2.6819   52.0546 C.ar    1  ZINC000015179664   -0.1000
      5 C5         -5.5831    2.7317   53.3121 C.ar    1  ZINC000015179664   -0.0700
      6 C6         -4.2073    2.7596   53.4457 C.ar    1  ZINC000015179664   -0.1200
      7 C7         -3.4032    2.7373   52.3217 C.ar    1  ZINC000015179664   -0.0500
      8 C8         -3.9747    2.6864   51.0638 C.ar    1  ZINC000015179664   -0.0400
      9 N9         -3.1136    2.6630   49.8601 N.pl3   1  ZINC000015179664    0.0300
     10 O10        -1.9016    2.6884   49.9777 O.2     1  ZINC000015179664   -0.1600
     11 O11        -3.6172    2.6183   48.7519 O.2     1  ZINC000015179664   -0.1500
     12 C12        -5.3501    2.6542   50.9304 C.ar    1  ZINC000015179664   -0.0400
     13 N13        -8.1085    1.2611   51.8269 N.am    1  ZINC000015179664   -0.6100
     14 C14        -7.2730    0.2550   51.1665 C.3     1  ZINC000015179664    0.0600
     15 C15        -9.2952    0.9075   52.3590 C.2     1  ZINC000015179664    0.5200
     16 O16        -9.6720   -0.2432   52.2899 O.2     1  ZINC000015179664   -0.5200
     17 C17       -10.1538    1.9419   53.0400 C.3     1  ZINC000015179664   -0.1500
     18 C18       -11.5851    1.4156   53.1636 C.3     1  ZINC000015179664    0.1300
     19 N19       -12.2754    1.5717   51.8809 N.am    1  ZINC000015179664   -0.7300
     20 C20       -12.8874    0.5144   51.3119 C.2     1  ZINC000015179664    0.5800
     21 O21       -12.8654   -0.5700   51.8626 O.2     1  ZINC000015179664   -0.5300
     22 C22       -13.5825    0.6717   50.0240 C.2     1  ZINC000015179664   -0.1500
     23 C23       -14.1143   -0.3680   49.3270 C.2     1  ZINC000015179664   -0.2200
     24 S24       -14.8416    0.1781   47.8855 S.3     1  ZINC000015179664    0.1900
     25 C25       -14.4247    1.8498   48.2198 C.2     1  ZINC000015179664   -0.2300
     26 C26       -13.7751    1.9469   49.3737 C.2     1  ZINC000015179664   -0.0900
     27 H27        -7.7198    4.4304   50.6958 H       1  ZINC000015179664    0.0800
     28 H28        -7.5991    2.9141   49.7714 H       1  ZINC000015179664    0.0600
     29 H29        -9.1426    3.3739   50.5294 H       1  ZINC000015179664    0.0700
     30 H30        -6.2113    2.7491   54.1904 H       1  ZINC000015179664    0.1500
     31 H31        -3.7608    2.7993   54.4283 H       1  ZINC000015179664    0.1500
     32 H32        -2.3285    2.7598   52.4260 H       1  ZINC000015179664    0.1600
     33 H33        -5.7966    2.6145   49.9479 H       1  ZINC000015179664    0.1600
     34 H34        -6.5750   -0.1683   51.8886 H       1  ZINC000015179664    0.0600
     35 H35        -7.9061   -0.5367   50.7657 H       1  ZINC000015179664    0.0800
     36 H36        -6.7165    0.7217   50.3536 H       1  ZINC000015179664    0.0800
     37 H37        -9.7554    2.1478   54.0335 H       1  ZINC000015179664    0.1000
     38 H38       -10.1535    2.8591   52.4512 H       1  ZINC000015179664    0.1000
     39 H39       -11.5619    0.3609   53.4378 H       1  ZINC000015179664    0.0800
     40 H40       -12.1143    1.9792   53.9320 H       1  ZINC000015179664    0.0800
     41 H41       -12.2920    2.4362   51.4412 H       1  ZINC000015179664    0.4000
     42 H42       -14.0802   -1.4000   49.6439 H       1  ZINC000015179664    0.1700
     43 H43       -14.6663    2.6841   47.5780 H       1  ZINC000015179664    0.1700
     44 H44       -13.4206    2.8823   49.7806 H       1  ZINC000015179664    0.1600
@<TRIPOS>BOND
     1     1     2    1
     2     1    27    1
     3     1    28    1
     4     1    29    1
     5     2     3    1
     6     2     4    1
     7     2    13    1
     8     4    12   ar
     9     4     5   ar
    10     5     6   ar
    11     5    30    1
    12     6     7   ar
    13     6    31    1
    14     7     8   ar
    15     7    32    1
    16     8     9    1
    17     8    12   ar
    18     9    10    2
    19     9    11    2
    20    12    33    1
    21    13    14    1
    22    13    15   am
    23    14    34    1
    24    14    35    1
    25    14    36    1
    26    15    16    2
    27    15    17    1
    28    17    18    1
    29    17    37    1
    30    17    38    1
    31    18    19    1
    32    18    39    1
    33    18    40    1
    34    19    20   am
    35    19    41    1
    36    20    21    2
    37    20    22    1
    38    22    26    1
    39    22    23    2
    40    23    24    1
    41    23    42    1
    42    24    25    1
    43    25    26    2
    44    25    43    1
    45    26    44    1
@<TRIPOS>SUBSTRUCTURE
     1 ZINC000015179664        1 TEMP              0 ****  ****    0 ROOT


##########                                Name:    ZINC000440379747
##########                DOCK_Rotatable_Bonds:                   8
##########                         Heavy_Atoms:                  27
##########                    Molecular_Weight:             394.452
##########                DOCK_Rotatable_Bonds:                   8
##########                       Formal_Charge:           0.0199995
##########                     HBond_Acceptors:                  10
##########                        HBond_Donors:                   3
##########                         Heavy_Atoms:                  27
##########                          Grid_Score:          -30.195576
##########                     Grid_vdw_energy:          -30.228727
##########                      Grid_es_energy:            0.033152
##########           Internal_energy_repulsive:           17.658670

@<TRIPOS>MOLECULE
ZINC000440379747
 49 51 1 0 0
SMALL
USER_CHARGES


@<TRIPOS>ATOM
      1 C1        -12.4753    0.5577   62.6530 C.3     1  ZINC000440379747   -0.1800
      2 C2        -11.6767    1.3059   61.6169 C.2     1  ZINC000440379747    0.5200
      3 O3        -11.8232    2.5030   61.4864 O.2     1  ZINC000440379747   -0.5200
      4 N4        -10.8000    0.6451   60.8352 N.am    1  ZINC000440379747   -0.5500
      5 C5        -10.5372   -0.7950   60.8990 C.3     1  ZINC000440379747    0.1100
      6 C6         -9.4737   -1.0594   59.8209 C.3     1  ZINC000440379747   -0.0900
      7 C7         -9.2064    0.2970   59.2080 C.ar    1  ZINC000440379747   -0.1100
      8 C8         -8.3487    0.6783   58.1956 C.ar    1  ZINC000440379747   -0.0700
      9 C9         -8.2817    2.0095   57.8039 C.ar    1  ZINC000440379747    0.1200
     10 N10        -7.4140    2.3974   56.7784 N.am    1  ZINC000440379747   -0.6400
     11 C11        -7.9053    2.7171   55.5648 C.2     1  ZINC000440379747    0.5100
     12 O12        -9.1010    2.6681   55.3620 O.2     1  ZINC000440379747   -0.4900
     13 C13        -6.9785    3.1313   54.4696 C.2     1  ZINC000440379747    0.5200
     14 O14        -6.2612    4.0994   54.6153 O.2     1  ZINC000440379747   -0.5100
     15 N15        -6.9386    2.4301   53.3193 N.am    1  ZINC000440379747   -0.5800
     16 C16        -7.7512    1.2395   53.0102 C.3     1  ZINC000440379747    0.1000
     17 C17        -7.8176    1.1954   51.4632 C.3     1  ZINC000440379747   -0.1300
     18 C18        -6.3949    1.6788   51.0764 C.3     1  ZINC000440379747   -0.1600
     19 C19        -6.0821    2.7296   52.1625 C.3     1  ZINC000440379747    0.1500
     20 H20        -6.2975    3.7290   51.7844 H       1  ZINC000440379747    0.1000
     21 C21        -4.6106    2.6339   52.5706 C.3     1  ZINC000440379747   -0.6500
     22 S22        -3.5749    3.3691   51.2756 S.o2    1  ZINC000440379747    2.6200
     23 N23        -2.0334    3.2670   51.8718 N.am    1  ZINC000440379747   -1.2500
     24 O24        -3.5592    2.5421   50.1201 O.2     1  ZINC000440379747   -0.9500
     25 O25        -3.8196    4.7652   51.1741 O.2     1  ZINC000440379747   -0.9500
     26 C26        -9.0816    2.9533   58.4359 C.ar    1  ZINC000440379747   -0.1000
     27 C27        -9.9369    2.5705   59.4459 C.ar    1  ZINC000440379747   -0.1400
     28 C28       -10.0115    1.2328   59.8392 C.ar    1  ZINC000440379747    0.1400
     29 H29       -13.1254    1.2537   63.1830 H       1  ZINC000440379747    0.1000
     30 H30       -13.0813   -0.2048   62.1637 H       1  ZINC000440379747    0.1000
     31 H31       -11.7967    0.0830   63.3616 H       1  ZINC000440379747    0.1000
     32 H32       -10.1538   -1.0660   61.8828 H       1  ZINC000440379747    0.0900
     33 H33       -11.4459   -1.3553   60.6791 H       1  ZINC000440379747    0.0900
     34 H34        -8.5653   -1.4581   60.2727 H       1  ZINC000440379747    0.0900
     35 H35        -9.8585   -1.7475   59.0682 H       1  ZINC000440379747    0.1000
     36 H36        -7.7287   -0.0592   57.7078 H       1  ZINC000440379747    0.1400
     37 H37        -6.4584    2.4364   56.9405 H       1  ZINC000440379747    0.4200
     38 H38        -7.2691    0.3408   53.3950 H       1  ZINC000440379747    0.0800
     39 H39        -8.7517    1.3436   53.4301 H       1  ZINC000440379747    0.1000
     40 H40        -7.9951    0.1801   51.1085 H       1  ZINC000440379747    0.1000
     41 H41        -8.5785    1.8782   51.0851 H       1  ZINC000440379747    0.0800
     42 H42        -5.6833    0.8543   51.1161 H       1  ZINC000440379747    0.1000
     43 H43        -6.3993    2.1388   50.0881 H       1  ZINC000440379747    0.1000
     44 H44        -4.4576    3.1707   53.5068 H       1  ZINC000440379747    0.1500
     45 H45        -4.3379    1.5869   52.7033 H       1  ZINC000440379747    0.1400
     46 H46        -1.2881    3.6032   51.3497 H       1  ZINC000440379747    0.4100
     47 H47        -1.8755    2.8711   52.7431 H       1  ZINC000440379747    0.4200
     48 H48        -9.0327    3.9893   58.1350 H       1  ZINC000440379747    0.1400
     49 H49       -10.5560    3.3088   59.9338 H       1  ZINC000440379747    0.1500
@<TRIPOS>BOND
     1     1     2    1
     2     1    29    1
     3     1    30    1
     4     1    31    1
     5     2     3    2
     6     2     4   am
     7     4    28    1
     8     4     5    1
     9     5     6    1
    10     5    32    1
    11     5    33    1
    12     6     7    1
    13     6    34    1
    14     6    35    1
    15     7    28   ar
    16     7     8   ar
    17     8     9   ar
    18     8    36    1
    19     9    10    1
    20     9    26   ar
    21    10    11   am
    22    10    37    1
    23    11    12    2
    24    11    13    1
    25    13    14    2
    26    13    15   am
    27    15    19    1
    28    15    16    1
    29    16    17    1
    30    16    38    1
    31    16    39    1
    32    17    18    1
    33    17    40    1
    34    17    41    1
    35    18    19    1
    36    18    42    1
    37    18    43    1
    38    19    20    1
    39    19    21    1
    40    21    22    1
    41    21    44    1
    42    21    45    1
    43    22    23   am
    44    22    24    2
    45    22    25    2
    46    23    46    1
    47    23    47    1
    48    26    27   ar
    49    26    48    1
    50    27    28   ar
    51    27    49    1
@<TRIPOS>SUBSTRUCTURE
     1 ZINC000440379747        1 TEMP              0 ****  ****    0 ROOT


##########                                Name:    ZINC000151991096
##########                DOCK_Rotatable_Bonds:                   8
##########                         Heavy_Atoms:                  27
##########                    Molecular_Weight:             364.444
##########                DOCK_Rotatable_Bonds:                   8
##########                       Formal_Charge:          -0.0200004
##########                     HBond_Acceptors:                   5
##########                        HBond_Donors:                   1
##########                         Heavy_Atoms:                  27
##########                          Grid_Score:          -30.133581
##########                     Grid_vdw_energy:          -30.142471
##########                      Grid_es_energy:            0.008891
##########           Internal_energy_repulsive:           17.576944

@<TRIPOS>MOLECULE
ZINC000151991096
 51 53 1 0 0
SMALL
USER_CHARGES


@<TRIPOS>ATOM
      1 C1         -7.7737    2.9420   49.8300 C.3     1  ZINC000151991096   -0.1500
      2 C2         -6.3728    3.2376   50.3695 C.3     1  ZINC000151991096   -0.1300
      3 C3         -5.9543    2.1285   51.3369 C.3     1  ZINC000151991096    0.1400
      4 H4         -6.2361    1.1601   50.9233 H       1  ZINC000151991096    0.1000
      5 N5         -6.6262    2.3240   52.6239 N.am    1  ZINC000151991096   -0.7200
      6 C6         -7.5158    1.4127   53.0651 C.2     1  ZINC000151991096    0.5600
      7 O7         -7.7619    0.4291   52.3941 O.2     1  ZINC000151991096   -0.5300
      8 C8         -8.1914    1.6089   54.3627 C.ar    1  ZINC000151991096   -0.1700
      9 C9         -7.5019    2.1888   55.4308 C.ar    1  ZINC000151991096   -0.0500
     10 C10        -8.1359    2.3705   56.6396 C.ar    1  ZINC000151991096   -0.1600
     11 C11        -9.4598    1.9779   56.7981 C.ar    1  ZINC000151991096    0.1600
     12 O12       -10.0812    2.1591   57.9909 O.3     1  ZINC000151991096   -0.3000
     13 C13        -9.2797    2.0276   59.1666 C.3     1  ZINC000151991096    0.0900
     14 C14       -10.1691    1.7626   60.3539 C.ar    1  ZINC000151991096   -0.0500
     15 C15       -10.9122    2.7866   60.9032 C.ar    1  ZINC000151991096   -0.1000
     16 C16       -11.7294    2.5449   61.9935 C.ar    1  ZINC000151991096   -0.0900
     17 C17       -11.8069    1.2766   62.5404 C.ar    1  ZINC000151991096   -0.1200
     18 C18       -11.0690    0.2431   62.0010 C.ar    1  ZINC000151991096   -0.0700
     19 C19       -10.2472    0.4784   60.8972 C.ar    1  ZINC000151991096   -0.0200
     20 C20        -9.4785   -0.5896   60.3320 C.1     1  ZINC000151991096    0.2400
     21 N21        -8.8688   -1.4367   59.8838 N.1     1  ZINC000151991096   -0.4000
     22 C22       -10.1490    1.4007   55.7381 C.ar    1  ZINC000151991096   -0.2200
     23 C23        -9.5238    1.2204   54.5245 C.ar    1  ZINC000151991096   -0.0100
     24 C24        -4.4386    2.1745   51.5405 C.3     1  ZINC000151991096    0.0700
     25 H25        -4.1067    1.2705   52.0511 H       1  ZINC000151991096    0.1000
     26 C26        -4.0598    3.4166   52.3754 C.3     1  ZINC000151991096   -0.1500
     27 C27        -2.7509    3.8900   51.6866 C.3     1  ZINC000151991096   -0.1600
     28 C28        -3.0443    3.5196   50.2111 C.3     1  ZINC000151991096    0.0500
     29 O29        -3.7812    2.2858   50.2728 O.3     1  ZINC000151991096   -0.3700
     30 H30        -8.4802    2.8970   50.6588 H       1  ZINC000151991096    0.0500
     31 H31        -8.0717    3.7320   49.1408 H       1  ZINC000151991096    0.0500
     32 H32        -7.7670    1.9862   49.3060 H       1  ZINC000151991096    0.0600
     33 H33        -5.6662    3.2824   49.5407 H       1  ZINC000151991096    0.0700
     34 H34        -6.3794    4.1933   50.8935 H       1  ZINC000151991096    0.0700
     35 H35        -6.4308    3.1094   53.1587 H       1  ZINC000151991096    0.4000
     36 H36        -6.4732    2.4938   55.3085 H       1  ZINC000151991096    0.1300
     37 H37        -7.6036    2.8183   57.4659 H       1  ZINC000151991096    0.1400
     38 H38        -8.5842    1.1977   59.0413 H       1  ZINC000151991096    0.0800
     39 H39        -8.7205    2.9489   59.3300 H       1  ZINC000151991096    0.0800
     40 H40       -10.8559    3.7792   60.4815 H       1  ZINC000151991096    0.1400
     41 H41       -12.3091    3.3504   62.4196 H       1  ZINC000151991096    0.1400
     42 H42       -12.4461    1.0952   63.3918 H       1  ZINC000151991096    0.1400
     43 H43       -11.1301   -0.7465   62.4292 H       1  ZINC000151991096    0.1400
     44 H44       -11.1776    1.0967   55.8653 H       1  ZINC000151991096    0.1300
     45 H45       -10.0601    0.7721   53.7012 H       1  ZINC000151991096    0.1400
     46 H46        -4.8334    4.1814   52.3059 H       1  ZINC000151991096    0.0800
     47 H47        -3.8747    3.1439   53.4145 H       1  ZINC000151991096    0.0900
     48 H48        -2.6130    4.9651   51.8018 H       1  ZINC000151991096    0.0800
     49 H49        -1.8876    3.3424   52.0649 H       1  ZINC000151991096    0.0800
     50 H50        -3.6451    4.2966   49.7382 H       1  ZINC000151991096    0.0600
     51 H51        -2.1124    3.3756   49.6645 H       1  ZINC000151991096    0.0900
@<TRIPOS>BOND
     1     1     2    1
     2     1    30    1
     3     1    31    1
     4     1    32    1
     5     2     3    1
     6     2    33    1
     7     2    34    1
     8     3     4    1
     9     3     5    1
    10     3    24    1
    11     5     6   am
    12     5    35    1
    13     6     7    2
    14     6     8    1
    15     8    23   ar
    16     8     9   ar
    17     9    10   ar
    18     9    36    1
    19    10    11   ar
    20    10    37    1
    21    11    12    1
    22    11    22   ar
    23    12    13    1
    24    13    14    1
    25    13    38    1
    26    13    39    1
    27    14    19   ar
    28    14    15   ar
    29    15    16   ar
    30    15    40    1
    31    16    17   ar
    32    16    41    1
    33    17    18   ar
    34    17    42    1
    35    18    19   ar
    36    18    43    1
    37    19    20    1
    38    20    21    3
    39    22    23   ar
    40    22    44    1
    41    23    45    1
    42    24    25    1
    43    24    29    1
    44    24    26    1
    45    26    27    1
    46    26    46    1
    47    26    47    1
    48    27    28    1
    49    27    48    1
    50    27    49    1
    51    28    29    1
    52    28    50    1
    53    28    51    1
@<TRIPOS>SUBSTRUCTURE
     1 ZINC000151991096        1 TEMP              0 ****  ****    0 ROOT


##########                                Name:    ZINC000355549087
##########                DOCK_Rotatable_Bonds:                   9
##########                         Heavy_Atoms:                  23
##########                    Molecular_Weight:             336.415
##########                DOCK_Rotatable_Bonds:                   9
##########                       Formal_Charge:        -9.53674e-07
##########                     HBond_Acceptors:                   8
##########                        HBond_Donors:                   4
##########                         Heavy_Atoms:                  23
##########                          Grid_Score:          -30.125597
##########                     Grid_vdw_energy:          -28.083988
##########                      Grid_es_energy:           -2.041609
##########           Internal_energy_repulsive:           17.375769

@<TRIPOS>MOLECULE
ZINC000355549087
 43 44 1 0 0
SMALL
USER_CHARGES


@<TRIPOS>ATOM
      1 C1         -7.5817    4.1133   51.8923 C.3     1  <0>        -0.1500
      2 C2         -7.7305    2.8288   51.0744 C.3     1  <0>        -0.1200
      3 C3         -7.6953    1.6204   52.0122 C.3     1  <0>        -0.1000
      4 H4         -7.1879    1.8932   52.9375 H       1  <0>         0.0800
      5 C5         -6.9422    0.4725   51.3369 C.3     1  <0>        -0.1500
      6 C6         -9.1256    1.1770   52.3265 C.3     1  <0>         0.0900
      7 H7         -9.8177    1.6743   51.6471 H       1  <0>         0.1000
      8 O8         -9.2321   -0.2386   52.1632 O.3     1  <0>        -0.3500
      9 C9        -10.3852   -0.8101   52.7843 C.3     1  <0>         0.0200
     10 C10        -9.4648    1.5457   53.7478 C.2     1  <0>         0.5100
     11 O11       -10.5572    2.0017   54.0116 O.2     1  <0>        -0.4800
     12 N12        -8.5543    1.3688   54.7256 N.am    1  <0>        -0.6200
     13 C13        -8.8678    1.7073   56.0364 C.2     1  <0>         0.2400
     14 N14        -8.8591    0.8830   57.0348 N.2     1  <0>        -0.5000
     15 C15        -9.1852    1.3753   58.2226 C.2     1  <0>         0.1700
     16 C16        -9.2186    0.5495   59.4568 C.2     1  <0>        -0.1100
     17 C17        -9.0858   -0.8078   59.5241 C.2     1  <0>         0.0600
     18 N18        -9.1707   -1.1845   60.8234 N.pl3   1  <0>        -0.5400
     19 C19        -9.3596   -0.0636   61.5995 C.2     1  <0>        -0.0600
     20 C20        -9.5005   -0.0393   63.0597 C.2     1  <0>         0.5900
     21 N21        -8.5743   -0.6357   63.8361 N.am    1  <0>        -0.8600
     22 O22       -10.4538    0.5194   63.5697 O.2     1  <0>        -0.5300
     23 C23        -9.3870    1.0237   60.7714 C.2     1  <0>        -0.0600
     24 C24        -9.4829    2.6871   58.2127 C.2     1  <0>        -0.3200
     25 S25        -9.3123    3.2724   56.5600 S.3     1  <0>         0.2500
     26 H26        -7.6067    4.9743   51.2242 H       1  <0>         0.0600
     27 H27        -8.4002    4.1851   52.6083 H       1  <0>         0.0600
     28 H28        -6.6318    4.0958   52.4268 H       1  <0>         0.0600
     29 H29        -8.6802    2.8464   50.5400 H       1  <0>         0.0600
     30 H30        -6.9118    2.7571   50.3584 H       1  <0>         0.0700
     31 H31        -7.4497    0.1997   50.4115 H       1  <0>         0.0700
     32 H32        -5.9233    0.7884   51.1130 H       1  <0>         0.0600
     33 H33        -6.9171   -0.3884   52.0050 H       1  <0>         0.0500
     34 H34       -10.3421   -1.8962   52.7008 H       1  <0>         0.0900
     35 H35       -10.4089   -0.5272   53.8367 H       1  <0>         0.0500
     36 H36       -11.2842   -0.4431   52.2890 H       1  <0>         0.0500
     37 H37        -7.6802    1.0052   54.5144 H       1  <0>         0.4200
     38 H38        -8.9379   -1.4697   58.6835 H       1  <0>         0.1800
     39 H39        -9.1088   -2.0950   61.1522 H       1  <0>         0.4200
     40 H40        -8.6669   -0.6186   64.8016 H       1  <0>         0.4000
     41 H41        -7.8151   -1.0820   63.4295 H       1  <0>         0.4100
     42 H42        -9.5196    2.0532   61.0694 H       1  <0>         0.1500
     43 H43        -9.7722    3.2787   59.0687 H       1  <0>         0.1800
@<TRIPOS>BOND
     1     1     2    1
     2     1    26    1
     3     1    27    1
     4     1    28    1
     5     2     3    1
     6     2    29    1
     7     2    30    1
     8     3     4    1
     9     3     5    1
    10     3     6    1
    11     5    31    1
    12     5    32    1
    13     5    33    1
    14     6     7    1
    15     6     8    1
    16     6    10    1
    17     8     9    1
    18     9    34    1
    19     9    35    1
    20     9    36    1
    21    10    11    2
    22    10    12   am
    23    12    13    1
    24    12    37    1
    25    13    25    1
    26    13    14    2
    27    14    15    1
    28    15    16    1
    29    15    24    2
    30    16    23    1
    31    16    17    2
    32    17    18    1
    33    17    38    1
    34    18    19    1
    35    18    39    1
    36    19    20    1
    37    19    23    2
    38    20    21   am
    39    20    22    2
    40    21    40    1
    41    21    41    1
    42    23    42    1
    43    24    25    1
    44    24    43    1
@<TRIPOS>SUBSTRUCTURE
     1 <0>         1 TEMP              0 ****  ****    0 ROOT


##########                                Name:    ZINC001053792610
##########                DOCK_Rotatable_Bonds:                   5
##########                         Heavy_Atoms:                  25
##########                    Molecular_Weight:             347.374
##########                DOCK_Rotatable_Bonds:                   5
##########                       Formal_Charge:          -0.0400001
##########                     HBond_Acceptors:                   9
##########                        HBond_Donors:                   2
##########                         Heavy_Atoms:                  25
##########                          Grid_Score:          -30.090048
##########                     Grid_vdw_energy:          -29.098412
##########                      Grid_es_energy:           -0.991637
##########           Internal_energy_repulsive:            5.480909

@<TRIPOS>MOLECULE
ZINC001053792610
 46 49 1 0 0
SMALL
USER_CHARGES


@<TRIPOS>ATOM
      1 C1        -10.3858   -1.0196   61.2882 C.3     1  ZINC001053792610   -0.1000
      2 C2         -9.8371   -0.1042   60.2241 C.ar    1  ZINC001053792610    0.0800
      3 C3         -8.8122   -0.5361   59.4014 C.ar    1  ZINC001053792610    0.0600
      4 N4         -8.3310    0.2666   58.4684 N.ar    1  ZINC001053792610   -0.4200
      5 C5         -8.8287    1.4816   58.3213 C.ar    1  ZINC001053792610    0.0800
      6 C6         -8.2803    2.3968   57.2570 C.3     1  ZINC001053792610    0.0700
      7 N7         -8.0627    1.6346   56.0202 N.3     1  ZINC001053792610   -0.4500
      8 C8         -7.2858    2.4225   55.0431 C.3     1  ZINC001053792610   -0.0100
      9 C9         -8.2320    1.9025   53.9626 C.3     1  ZINC001053792610    0.0800
     10 C10        -9.2229    1.7525   55.1151 C.3     1  ZINC001053792610   -0.0100
     11 C11        -8.6265    2.9289   52.8891 C.3     1  ZINC001053792610   -0.1500
     12 C12        -7.9059    2.3712   51.6293 C.3     1  ZINC001053792610    0.1100
     13 H13        -8.4396    2.6439   50.7189 H       1  ZINC001053792610    0.1200
     14 N14        -6.5129    2.8216   51.5754 N.am    1  ZINC001053792610   -0.7100
     15 C15        -6.1797    3.8938   50.8299 C.2     1  ZINC001053792610    0.5000
     16 O16        -7.0333    4.4866   50.2046 O.2     1  ZINC001053792610   -0.5100
     17 C17        -4.7465    4.3560   50.7731 C.3     1  ZINC001053792610    0.0800
     18 H18        -4.6932    5.3959   50.4507 H       1  ZINC001053792610    0.1300
     19 C19        -4.0659    4.1789   52.1442 C.3     1  ZINC001053792610    0.0500
     20 O20        -2.9792    3.2449   51.8804 O.3     1  ZINC001053792610   -0.3200
     21 C21        -2.9859    2.9067   50.5862 C.2     1  ZINC001053792610    0.6500
     22 O22        -2.1823    2.1372   50.0977 O.2     1  ZINC001053792610   -0.5100
     23 N23        -3.9613    3.4957   49.8749 N.am    1  ZINC001053792610   -0.7100
     24 C24        -7.9904    0.8454   51.8901 C.3     1  ZINC001053792610    0.0400
     25 O25        -7.8390    0.6975   53.3135 O.3     1  ZINC001053792610   -0.3300
     26 C26        -9.8539    1.9137   59.1443 C.ar    1  ZINC001053792610    0.0600
     27 N27       -10.3386    1.1092   60.0736 N.ar    1  ZINC001053792610   -0.4400
     28 H28       -11.2052   -1.6074   60.8745 H       1  ZINC001053792610    0.0800
     29 H29        -9.5975   -1.6882   61.6341 H       1  ZINC001053792610    0.0800
     30 H30       -10.7516   -0.4252   62.1255 H       1  ZINC001053792610    0.0800
     31 H31        -8.4052   -1.5292   59.5219 H       1  ZINC001053792610    0.1700
     32 H32        -8.9914    3.2011   57.0678 H       1  ZINC001053792610    0.1000
     33 H33        -7.3342    2.8202   57.5941 H       1  ZINC001053792610    0.0600
     34 H34        -7.3544    3.4990   55.1997 H       1  ZINC001053792610    0.0800
     35 H35        -6.2588    2.0772   54.9245 H       1  ZINC001053792610    0.0900
     36 H36        -9.8230    0.8444   55.0570 H       1  ZINC001053792610    0.1000
     37 H37        -9.8230    2.6451   55.2915 H       1  ZINC001053792610    0.0800
     38 H38        -9.7067    2.9455   52.7445 H       1  ZINC001053792610    0.1000
     39 H39        -8.2538    3.9211   53.1435 H       1  ZINC001053792610    0.1000
     40 H40        -5.8305    2.3483   52.0765 H       1  ZINC001053792610    0.4000
     41 H41        -3.6733    5.1308   52.5017 H       1  ZINC001053792610    0.1200
     42 H42        -4.7652    3.7575   52.8663 H       1  ZINC001053792610    0.1100
     43 H43        -4.1216    3.3711   48.9263 H       1  ZINC001053792610    0.4400
     44 H44        -8.9587    0.4602   51.5708 H       1  ZINC001053792610    0.0800
     45 H45        -7.1857    0.3274   51.3683 H       1  ZINC001053792610    0.0900
     46 H46       -10.2608    2.9069   59.0242 H       1  ZINC001053792610    0.1600
@<TRIPOS>BOND
     1     1     2    1
     2     1    28    1
     3     1    29    1
     4     1    30    1
     5     2    27   ar
     6     2     3   ar
     7     3     4   ar
     8     3    31    1
     9     4     5   ar
    10     5     6    1
    11     5    26   ar
    12     6     7    1
    13     6    32    1
    14     6    33    1
    15     7    10    1
    16     7     8    1
    17     8     9    1
    18     8    34    1
    19     8    35    1
    20     9    25    1
    21     9    10    1
    22     9    11    1
    23    10    36    1
    24    10    37    1
    25    11    12    1
    26    11    38    1
    27    11    39    1
    28    12    13    1
    29    12    14    1
    30    12    24    1
    31    14    15   am
    32    14    40    1
    33    15    16    2
    34    15    17    1
    35    17    18    1
    36    17    23    1
    37    17    19    1
    38    19    20    1
    39    19    41    1
    40    19    42    1
    41    20    21    1
    42    21    22    2
    43    21    23   am
    44    23    43    1
    45    24    25    1
    46    24    44    1
    47    24    45    1
    48    26    27   ar
    49    26    46    1
@<TRIPOS>SUBSTRUCTURE
     1 ZINC001053792610        1 TEMP              0 ****  ****    0 ROOT


##########                                Name:    ZINC000426805817
##########                DOCK_Rotatable_Bonds:                   6
##########                         Heavy_Atoms:                  26
##########                    Molecular_Weight:             412.286
##########                DOCK_Rotatable_Bonds:                   6
##########                       Formal_Charge:          -0.0100001
##########                     HBond_Acceptors:                   5
##########                        HBond_Donors:                   4
##########                         Heavy_Atoms:                  26
##########                          Grid_Score:          -30.086740
##########                     Grid_vdw_energy:          -29.271765
##########                      Grid_es_energy:           -0.814976
##########           Internal_energy_repulsive:           10.442425

@<TRIPOS>MOLECULE
ZINC000426805817
 44 47 1 0 0
SMALL
USER_CHARGES


@<TRIPOS>ATOM
      1 O1        -11.2581   -2.6310   60.7802 O.co2   1  ZINC000426805817   -0.6300
      2 C2        -10.4817   -1.9875   60.0949 C.2     1  ZINC000426805817    0.5000
      3 O3         -9.5990   -2.5568   59.4758 O.co2   1  ZINC000426805817   -0.6800
      4 C4        -10.6168   -0.4891   60.0081 C.3     1  ZINC000426805817   -0.0500
      5 H5         -9.6850   -0.0611   59.6383 H       1  ZINC000426805817    0.1300
      6 C6        -11.7563   -0.1343   59.0508 C.3     1  ZINC000426805817   -0.0500
      7 C7        -13.0557   -0.6680   59.5966 C.2     1  ZINC000426805817   -0.1900
      8 C8        -13.7553   -0.1663   60.6265 C.2     1  ZINC000426805817    0.0500
      9 N9        -14.8820   -0.9145   60.8336 N.pl3   1  ZINC000426805817   -0.5900
     10 C10       -14.9364   -1.9425   59.9184 C.ar    1  ZINC000426805817    0.1100
     11 C11       -15.8442   -2.9706   59.6884 C.ar    1  ZINC000426805817   -0.1200
     12 C12       -15.6202   -3.8703   58.6695 C.ar    1  ZINC000426805817   -0.0700
     13 C13       -14.4934   -3.7628   57.8648 C.ar    1  ZINC000426805817   -0.1100
     14 Br14      -14.2098   -5.0110   56.4728 Br      1  ZINC000426805817   -0.0400
     15 C15       -13.5819   -2.7521   58.0746 C.ar    1  ZINC000426805817   -0.0400
     16 C16       -13.7980   -1.8292   59.0996 C.ar    1  ZINC000426805817   -0.1000
     17 N17       -10.9100    0.0541   61.3411 N.4     1  ZINC000426805817   -0.4800
     18 H18       -11.1405    1.0333   61.2621 H       1  ZINC000426805817    0.4000
     19 H19       -11.6902   -0.4437   61.7431 H       1  ZINC000426805817    0.4200
     20 C20        -9.7317   -0.1034   62.2042 C.3     1  ZINC000426805817    0.0400
     21 C21        -9.9861    0.5681   63.5291 C.ar    1  ZINC000426805817   -0.1600
     22 C22        -8.9195    0.9165   64.3509 C.ar    1  ZINC000426805817    0.1100
     23 N23        -7.5536    0.7844   64.2386 N.pl3   1  ZINC000426805817   -0.5900
     24 C24        -6.9433    1.3015   65.3488 C.2     1  ZINC000426805817    0.0600
     25 C25        -7.8668    1.7757   66.1997 C.2     1  ZINC000426805817   -0.2000
     26 C26        -9.1757    1.5433   65.5843 C.ar    1  ZINC000426805817   -0.1100
     27 C27       -10.4905    1.8088   65.9708 C.ar    1  ZINC000426805817   -0.0400
     28 C28       -11.5235    1.4579   65.1477 C.ar    1  ZINC000426805817   -0.1500
     29 C29       -11.2758    0.8442   63.9278 C.ar    1  ZINC000426805817   -0.0700
     30 H30       -11.8222    0.9490   58.9500 H       1  ZINC000426805817    0.1200
     31 H31       -11.5624   -0.5789   58.0746 H       1  ZINC000426805817    0.0900
     32 H32       -13.4708    0.6994   61.2059 H       1  ZINC000426805817    0.1700
     33 H33       -15.5439   -0.7459   61.5224 H       1  ZINC000426805817    0.4200
     34 H34       -16.7236   -3.0639   60.3084 H       1  ZINC000426805817    0.1300
     35 H35       -16.3278   -4.6673   58.4951 H       1  ZINC000426805817    0.1400
     36 H36       -12.7067   -2.6714   57.4470 H       1  ZINC000426805817    0.1400
     37 H37        -9.5387   -1.1640   62.3655 H       1  ZINC000426805817    0.1500
     38 H38        -8.8665    0.3546   61.7249 H       1  ZINC000426805817    0.1300
     39 H39        -7.0925    0.3838   63.4849 H       1  ZINC000426805817    0.4300
     40 H40        -5.8765    1.3247   65.5156 H       1  ZINC000426805817    0.1800
     41 H41        -7.6802    2.2402   67.1567 H       1  ZINC000426805817    0.1500
     42 H42       -10.6907    2.2894   66.9170 H       1  ZINC000426805817    0.1300
     43 H43       -12.5406    1.6635   65.4473 H       1  ZINC000426805817    0.1300
     44 H44       -12.1027    0.5727   63.2883 H       1  ZINC000426805817    0.1300
@<TRIPOS>BOND
     1     1     2   ar
     2     2     3   ar
     3     2     4    1
     4     4     5    1
     5     4     6    1
     6     4    17    1
     7     6     7    1
     8     6    30    1
     9     6    31    1
    10     7    16    1
    11     7     8    2
    12     8     9    1
    13     8    32    1
    14     9    10    1
    15     9    33    1
    16    10    16   ar
    17    10    11   ar
    18    11    12   ar
    19    11    34    1
    20    12    13   ar
    21    12    35    1
    22    13    14    1
    23    13    15   ar
    24    15    16   ar
    25    15    36    1
    26    17    18    1
    27    17    19    1
    28    17    20    1
    29    20    21    1
    30    20    37    1
    31    20    38    1
    32    21    29   ar
    33    21    22   ar
    34    22    26   ar
    35    22    23    1
    36    23    24    1
    37    23    39    1
    38    24    25    2
    39    24    40    1
    40    25    26    1
    41    25    41    1
    42    26    27   ar
    43    27    28   ar
    44    27    42    1
    45    28    29   ar
    46    28    43    1
    47    29    44    1
@<TRIPOS>SUBSTRUCTURE
     1 ZINC000426805817        1 TEMP              0 ****  ****    0 ROOT


##########                                Name:    ZINC000588570917
##########                DOCK_Rotatable_Bonds:                   7
##########                         Heavy_Atoms:                  25
##########                    Molecular_Weight:             366.481
##########                DOCK_Rotatable_Bonds:                   7
##########                       Formal_Charge:          -0.0100006
##########                     HBond_Acceptors:                   7
##########                        HBond_Donors:                   1
##########                         Heavy_Atoms:                  25
##########                          Grid_Score:          -30.074482
##########                     Grid_vdw_energy:          -28.396624
##########                      Grid_es_energy:           -1.677858
##########           Internal_energy_repulsive:           16.646561

@<TRIPOS>MOLECULE
ZINC000588570917
 51 52 1 0 0
SMALL
USER_CHARGES


@<TRIPOS>ATOM
      1 C1         -4.2428    2.9585   50.5159 C.3     1  ZINC000588570917   -0.1300
      2 C2         -5.1460    2.7198   51.6983 C.2     1  ZINC000588570917   -0.0500
      3 C3         -6.3870    3.1985   51.6946 C.2     1  ZINC000588570917   -0.2000
      4 C4         -6.8893    3.9811   50.5088 C.3     1  ZINC000588570917   -0.0900
      5 C5         -8.3517    3.6195   50.2416 C.3     1  ZINC000588570917   -0.1500
      6 C6         -7.2689    2.9642   52.8479 C.2     1  ZINC000588570917    0.5600
      7 O7         -7.9948    3.8538   53.2491 O.2     1  ZINC000588570917   -0.5100
      8 N8         -7.2728    1.7637   53.4604 N.am    1  ZINC000588570917   -0.6800
      9 C9         -8.1113    1.5407   54.5569 C.ar    1  ZINC000588570917    0.2100
     10 C10        -9.3807    1.0104   54.3660 C.ar    1  ZINC000588570917   -0.1700
     11 C11       -10.2061    0.7910   55.4513 C.ar    1  ZINC000588570917    0.0000
     12 C12        -9.7701    1.0987   56.7270 C.ar    1  ZINC000588570917   -0.7000
     13 S13       -10.8264    0.8172   58.1089 S.o2    1  ZINC000588570917    2.6900
     14 O14       -11.4160    2.0708   58.4253 O.2     1  ZINC000588570917   -0.9500
     15 O15       -11.5862   -0.3440   57.8032 O.2     1  ZINC000588570917   -0.9500
     16 N16        -9.8588    0.4184   59.3924 N.am    1  ZINC000588570917   -1.0000
     17 C17        -9.8565    1.2296   60.6201 C.3     1  ZINC000588570917    0.0900
     18 C18       -10.0499    0.2934   61.8185 C.3     1  ZINC000588570917    0.0700
     19 H19       -11.0544   -0.1289   61.7922 H       1  ZINC000588570917    0.0700
     20 C20        -9.8601    1.0797   63.1171 C.3     1  ZINC000588570917   -0.1500
     21 O21        -9.0867   -0.7609   61.7524 O.3     1  ZINC000588570917   -0.3700
     22 C22        -9.2126   -1.5973   60.5997 C.3     1  ZINC000588570917    0.0800
     23 H23        -8.4740   -2.3974   60.6481 H       1  ZINC000588570917    0.1200
     24 C24       -10.6179   -2.2008   60.5573 C.3     1  ZINC000588570917   -0.1900
     25 C25        -8.9805   -0.7611   59.3411 C.3     1  ZINC000588570917    0.0900
     26 C26        -8.5066    1.6264   56.9207 C.ar    1  ZINC000588570917    0.0000
     27 C27        -7.6744    1.8437   55.8401 C.ar    1  ZINC000588570917   -0.1400
     28 H28        -3.2735    2.4951   50.6996 H       1  ZINC000588570917    0.0600
     29 H29        -4.6905    2.5224   49.6228 H       1  ZINC000588570917    0.0800
     30 H30        -4.1110    4.0306   50.3697 H       1  ZINC000588570917    0.0800
     31 H31        -4.7856    2.1602   52.5488 H       1  ZINC000588570917    0.1300
     32 H32        -6.8112    5.0480   50.7180 H       1  ZINC000588570917    0.0700
     33 H33        -6.2889    3.7378   49.6322 H       1  ZINC000588570917    0.0800
     34 H34        -8.9522    3.8628   51.1182 H       1  ZINC000588570917    0.0500
     35 H35        -8.7151    4.1855   49.3839 H       1  ZINC000588570917    0.0600
     36 H36        -8.4299    2.5526   50.0324 H       1  ZINC000588570917    0.0600
     37 H37        -6.6939    1.0542   53.1404 H       1  ZINC000588570917    0.4100
     38 H38        -9.7221    0.7702   53.3699 H       1  ZINC000588570917    0.1400
     39 H39       -11.1935    0.3789   55.3035 H       1  ZINC000588570917    0.1400
     40 H40        -8.9047    1.7526   60.7127 H       1  ZINC000588570917    0.0900
     41 H41       -10.6714    1.9526   60.5839 H       1  ZINC000588570917    0.1000
     42 H42       -10.5925    1.8857   63.1643 H       1  ZINC000588570917    0.0700
     43 H43        -9.9978    0.4135   63.9688 H       1  ZINC000588570917    0.0700
     44 H44        -8.8548    1.5004   63.1436 H       1  ZINC000588570917    0.0700
     45 H45       -11.3558   -1.4001   60.5071 H       1  ZINC000588570917    0.0600
     46 H46       -10.7131   -2.8382   59.6783 H       1  ZINC000588570917    0.0700
     47 H47       -10.7859   -2.7939   61.4562 H       1  ZINC000588570917    0.0700
     48 H48        -9.2128   -1.3556   58.4575 H       1  ZINC000588570917    0.1000
     49 H49        -7.9407   -0.4364   59.3027 H       1  ZINC000588570917    0.0900
     50 H50        -8.1690    1.8657   57.9182 H       1  ZINC000588570917    0.1400
     51 H51        -6.6876    2.2556   55.9921 H       1  ZINC000588570917    0.1500
@<TRIPOS>BOND
     1     1     2    1
     2     1    28    1
     3     1    29    1
     4     1    30    1
     5     2     3    2
     6     2    31    1
     7     3     4    1
     8     3     6    1
     9     4     5    1
    10     4    32    1
    11     4    33    1
    12     5    34    1
    13     5    35    1
    14     5    36    1
    15     6     7    2
    16     6     8   am
    17     8     9    1
    18     8    37    1
    19     9    27   ar
    20     9    10   ar
    21    10    11   ar
    22    10    38    1
    23    11    12   ar
    24    11    39    1
    25    12    13    1
    26    12    26   ar
    27    13    14    2
    28    13    15    2
    29    13    16   am
    30    16    25    1
    31    16    17    1
    32    17    18    1
    33    17    40    1
    34    17    41    1
    35    18    19    1
    36    18    20    1
    37    18    21    1
    38    20    42    1
    39    20    43    1
    40    20    44    1
    41    21    22    1
    42    22    23    1
    43    22    24    1
    44    22    25    1
    45    24    45    1
    46    24    46    1
    47    24    47    1
    48    25    48    1
    49    25    49    1
    50    26    27   ar
    51    26    50    1
    52    27    51    1
@<TRIPOS>SUBSTRUCTURE
     1 ZINC000588570917        1 TEMP              0 ****  ****    0 ROOT


##########                                Name:    ZINC000893400114
##########                DOCK_Rotatable_Bonds:                   6
##########                         Heavy_Atoms:                  27
##########                    Molecular_Weight:             381.472
##########                DOCK_Rotatable_Bonds:                   6
##########                       Formal_Charge:           0.0300001
##########                     HBond_Acceptors:                   8
##########                        HBond_Donors:                   1
##########                         Heavy_Atoms:                  27
##########                          Grid_Score:          -30.051491
##########                     Grid_vdw_energy:          -29.802794
##########                      Grid_es_energy:           -0.248697
##########           Internal_energy_repulsive:           79.913422

@<TRIPOS>MOLECULE
ZINC000893400114
 58 61 1 0 0
SMALL
USER_CHARGES


@<TRIPOS>ATOM
      1 O1         -9.2053    0.1778   53.3109 O.2     1  ZINC000893400114   -0.5600
      2 C2         -9.6624    0.5996   54.3557 C.2     1  ZINC000893400114    0.7100
      3 N3        -10.6466   -0.0755   54.9818 N.am    1  ZINC000893400114   -0.7300
      4 C4        -11.1697   -1.3144   54.4007 C.3     1  ZINC000893400114    0.1400
      5 H5        -10.4469   -1.7441   53.7070 H       1  ZINC000893400114    0.1200
      6 C6        -12.5152   -1.0509   53.6857 C.3     1  ZINC000893400114   -0.1400
      7 C7        -13.5337   -1.3864   54.7978 C.3     1  ZINC000893400114    0.1000
      8 N8        -12.8455   -2.3289   55.6876 N.am    1  ZINC000893400114   -0.6200
      9 C9        -13.5207   -3.1858   56.6655 C.3     1  ZINC000893400114    0.1600
     10 C10       -14.6295   -2.3921   57.3631 C.3     1  ZINC000893400114   -0.1700
     11 C11       -15.3800   -3.3166   58.3254 C.3     1  ZINC000893400114    0.0700
     12 O12       -15.9062   -4.4302   57.6008 O.3     1  ZINC000893400114   -0.3800
     13 C13       -14.9113   -5.2364   56.9665 C.3     1  ZINC000893400114    0.0700
     14 C14       -14.1420   -4.3891   55.9496 C.3     1  ZINC000893400114   -0.1700
     15 C15       -11.5128   -2.3066   55.4898 C.2     1  ZINC000893400114    0.5100
     16 O16       -10.7090   -2.9822   56.0968 O.2     1  ZINC000893400114   -0.4900
     17 N17        -9.1812    1.7394   54.8903 N.am    1  ZINC000893400114   -0.6300
     18 C18        -9.7145    2.2663   56.1566 C.3     1  ZINC000893400114    0.0800
     19 C19        -8.5363    2.5614   57.0918 C.3     1  ZINC000893400114    0.0500
     20 O20        -7.5890    3.3865   56.4097 O.3     1  ZINC000893400114   -0.3800
     21 C21        -7.0068    2.7774   55.2547 C.3     1  ZINC000893400114    0.0600
     22 C22        -8.1029    2.4904   54.2282 C.3     1  ZINC000893400114    0.1400
     23 H23        -8.4999    3.4295   53.8430 H       1  ZINC000893400114    0.0800
     24 C24        -7.5267    1.6636   53.0770 C.3     1  ZINC000893400114   -0.1200
     25 C25        -6.2736    2.3517   52.5320 C.3     1  ZINC000893400114    0.0700
     26 H26        -5.5226    2.4287   53.3183 H       1  ZINC000893400114    0.0800
     27 C27        -6.6335    3.7600   52.0119 C.3     1  ZINC000893400114   -0.1500
     28 C28        -5.7629    3.8707   50.7306 C.3     1  ZINC000893400114   -0.1600
     29 C29        -5.7806    2.4026   50.2352 C.3     1  ZINC000893400114    0.0500
     30 O30        -5.7482    1.6024   51.4300 O.3     1  ZINC000893400114   -0.3800
     31 H31       -11.0085    0.2589   55.8174 H       1  ZINC000893400114    0.4000
     32 H32       -12.5982   -0.0071   53.3829 H       1  ZINC000893400114    0.1000
     33 H33       -12.6390   -1.7148   52.8302 H       1  ZINC000893400114    0.1000
     34 H34       -13.8072   -0.4834   55.3437 H       1  ZINC000893400114    0.0700
     35 H35       -14.4210   -1.8519   54.3688 H       1  ZINC000893400114    0.0800
     36 H36       -12.7992   -3.5340   57.4047 H       1  ZINC000893400114    0.0900
     37 H37       -14.1898   -1.5653   57.9210 H       1  ZINC000893400114    0.0800
     38 H38       -15.3225   -2.0022   56.6177 H       1  ZINC000893400114    0.0900
     39 H39       -14.6952   -3.6741   59.0943 H       1  ZINC000893400114    0.0500
     40 H40       -16.1976   -2.7681   58.7930 H       1  ZINC000893400114    0.1000
     41 H41       -14.2205   -5.6190   57.7176 H       1  ZINC000893400114    0.0500
     42 H42       -15.3914   -6.0708   56.4552 H       1  ZINC000893400114    0.1000
     43 H43       -14.8253   -4.0394   55.1757 H       1  ZINC000893400114    0.0900
     44 H44       -13.3539   -4.9903   55.4966 H       1  ZINC000893400114    0.0700
     45 H45       -10.2714    3.1839   55.9668 H       1  ZINC000893400114    0.0800
     46 H46       -10.3706    1.5262   56.6148 H       1  ZINC000893400114    0.0800
     47 H47        -8.8976    3.0796   57.9801 H       1  ZINC000893400114    0.1100
     48 H48        -8.0601    1.6254   57.3839 H       1  ZINC000893400114    0.0500
     49 H49        -6.2677    3.4511   54.8213 H       1  ZINC000893400114    0.1300
     50 H50        -6.5250    1.8422   55.5401 H       1  ZINC000893400114    0.0500
     51 H51        -7.2668    0.6687   53.4385 H       1  ZINC000893400114    0.0800
     52 H52        -8.2691    1.5792   52.2832 H       1  ZINC000893400114    0.1100
     53 H53        -7.6938    3.8238   51.7672 H       1  ZINC000893400114    0.0800
     54 H54        -6.3550    4.5244   52.7373 H       1  ZINC000893400114    0.0800
     55 H55        -6.2215    4.5372   50.0003 H       1  ZINC000893400114    0.0800
     56 H56        -4.7493    4.1919   50.9709 H       1  ZINC000893400114    0.0800
     57 H57        -6.6921    2.2047   49.6712 H       1  ZINC000893400114    0.0600
     58 H58        -4.9032    2.1998   49.6212 H       1  ZINC000893400114    0.0800
@<TRIPOS>BOND
     1     1     2    2
     2     2     3   am
     3     2    17   am
     4     3     4    1
     5     3    31    1
     6     4     5    1
     7     4    15    1
     8     4     6    1
     9     6     7    1
    10     6    32    1
    11     6    33    1
    12     7     8    1
    13     7    34    1
    14     7    35    1
    15     8     9    1
    16     8    15   am
    17     9    14    1
    18     9    10    1
    19     9    36    1
    20    10    11    1
    21    10    37    1
    22    10    38    1
    23    11    12    1
    24    11    39    1
    25    11    40    1
    26    12    13    1
    27    13    14    1
    28    13    41    1
    29    13    42    1
    30    14    43    1
    31    14    44    1
    32    15    16    2
    33    17    22    1
    34    17    18    1
    35    18    19    1
    36    18    45    1
    37    18    46    1
    38    19    20    1
    39    19    47    1
    40    19    48    1
    41    20    21    1
    42    21    22    1
    43    21    49    1
    44    21    50    1
    45    22    23    1
    46    22    24    1
    47    24    25    1
    48    24    51    1
    49    24    52    1
    50    25    26    1
    51    25    30    1
    52    25    27    1
    53    27    28    1
    54    27    53    1
    55    27    54    1
    56    28    29    1
    57    28    55    1
    58    28    56    1
    59    29    30    1
    60    29    57    1
    61    29    58    1
@<TRIPOS>SUBSTRUCTURE
     1 ZINC000893400114        1 TEMP              0 ****  ****    0 ROOT


##########                                Name:    ZINC001490207225
##########                DOCK_Rotatable_Bonds:                   7
##########                         Heavy_Atoms:                  24
##########                    Molecular_Weight:             334.378
##########                DOCK_Rotatable_Bonds:                   7
##########                       Formal_Charge:           -0.010001
##########                     HBond_Acceptors:                   9
##########                        HBond_Donors:                   3
##########                         Heavy_Atoms:                  24
##########                          Grid_Score:          -30.041569
##########                     Grid_vdw_energy:          -28.427420
##########                      Grid_es_energy:           -1.614149
##########           Internal_energy_repulsive:            5.246170

@<TRIPOS>MOLECULE
ZINC001490207225
 46 48 1 0 0
SMALL
USER_CHARGES


@<TRIPOS>ATOM
      1 C1        -15.7367   -2.1351   54.8458 C.3     1  ZINC001490207225    0.0900
      2 N2        -14.2985   -2.2658   55.0924 N.pl3   1  ZINC001490207225   -0.3600
      3 C3        -13.7351   -2.7457   56.2125 C.2     1  ZINC001490207225    0.1300
      4 C4        -12.3663   -2.6999   56.0391 C.2     1  ZINC001490207225   -0.3000
      5 C5        -11.3458   -3.1280   57.0131 C.2     1  ZINC001490207225    0.6200
      6 O6        -10.8124   -4.2145   56.8969 O.2     1  ZINC001490207225   -0.5400
      7 N7        -11.0042   -2.3151   58.0324 N.am    1  ZINC001490207225   -0.6200
      8 C8        -10.0059   -2.5885   59.0791 C.3     1  ZINC001490207225    0.1100
      9 C9        -10.4940   -1.8643   60.3446 C.3     1  ZINC001490207225   -0.1100
     10 H10       -10.9361   -2.5523   61.0654 H       1  ZINC001490207225    0.1000
     11 C11        -9.3227   -1.0630   60.9507 C.3     1  ZINC001490207225    0.1000
     12 N12        -9.9107    0.2476   61.3117 N.am    1  ZINC001490207225   -0.6200
     13 C13        -9.6673    0.9883   62.4110 C.2     1  ZINC001490207225    0.5300
     14 O14       -10.2339    2.0496   62.5648 O.2     1  ZINC001490207225   -0.5300
     15 C15        -8.6913    0.4979   63.4492 C.3     1  ZINC001490207225    0.1200
     16 N16        -8.8702    1.2613   64.6869 N.am    1  ZINC001490207225   -0.7400
     17 C17        -8.6299    0.6790   65.8784 C.2     1  ZINC001490207225    0.7100
     18 N18        -8.7930    1.3816   67.0168 N.am    1  ZINC001490207225   -0.8600
     19 O19        -8.2661   -0.4802   65.9263 O.2     1  ZINC001490207225   -0.5900
     20 C20       -10.8267    0.5594   60.1904 C.3     1  ZINC001490207225    0.1100
     21 C21       -11.5123   -0.8075   59.8432 C.3     1  ZINC001490207225   -0.0800
     22 C22       -12.8925   -0.9394   60.4901 C.3     1  ZINC001490207225   -0.1300
     23 C23       -11.5517   -0.9778   58.3128 C.3     1  ZINC001490207225    0.1000
     24 C24       -12.1266   -2.1661   54.7530 C.2     1  ZINC001490207225    0.0700
     25 N25       -13.2805   -1.9172   54.1977 N.2     1  ZINC001490207225   -0.2900
     26 H26       -16.1124   -3.0523   54.3924 H       1  ZINC001490207225    0.0800
     27 H27       -16.2526   -1.9586   55.7896 H       1  ZINC001490207225    0.0900
     28 H28       -15.9150   -1.2971   54.1720 H       1  ZINC001490207225    0.1000
     29 H29       -14.2568   -3.1020   57.0886 H       1  ZINC001490207225    0.1900
     30 H30        -9.9412   -3.6609   59.2633 H       1  ZINC001490207225    0.0900
     31 H31        -9.0327   -2.2007   58.7782 H       1  ZINC001490207225    0.0800
     32 H32        -8.9389   -1.5646   61.8389 H       1  ZINC001490207225    0.0900
     33 H33        -8.5298   -0.9335   60.2140 H       1  ZINC001490207225    0.0900
     34 H34        -8.8700   -0.5593   63.6453 H       1  ZINC001490207225    0.1000
     35 H35        -7.6734    0.6326   63.0832 H       1  ZINC001490207225    0.1000
     36 H36        -9.1616    2.1856   64.6487 H       1  ZINC001490207225    0.4100
     37 H37        -8.6189    0.9628   67.8743 H       1  ZINC001490207225    0.4000
     38 H38        -9.0844    2.3060   66.9788 H       1  ZINC001490207225    0.4200
     39 H39       -11.5788    1.2832   60.5044 H       1  ZINC001490207225    0.0900
     40 H40       -10.2660    0.9393   59.3364 H       1  ZINC001490207225    0.0800
     41 H41       -13.5436   -0.1465   60.1217 H       1  ZINC001490207225    0.0700
     42 H42       -13.3215   -1.9088   60.2368 H       1  ZINC001490207225    0.0600
     43 H43       -12.7958   -0.8565   61.5726 H       1  ZINC001490207225    0.0600
     44 H44       -10.9236   -0.2251   57.8364 H       1  ZINC001490207225    0.0800
     45 H45       -12.5772   -0.8919   57.9532 H       1  ZINC001490207225    0.0900
     46 H46       -11.1578   -1.9977   54.3063 H       1  ZINC001490207225    0.2000
@<TRIPOS>BOND
     1     1     2    1
     2     1    26    1
     3     1    27    1
     4     1    28    1
     5     2    25    1
     6     2     3    1
     7     3     4    2
     8     3    29    1
     9     4     5    1
    10     4    24    1
    11     5     6    2
    12     5     7   am
    13     7    23    1
    14     7     8    1
    15     8     9    1
    16     8    30    1
    17     8    31    1
    18     9    10    1
    19     9    21    1
    20     9    11    1
    21    11    12    1
    22    11    32    1
    23    11    33    1
    24    12    13   am
    25    12    20    1
    26    13    14    2
    27    13    15    1
    28    15    16    1
    29    15    34    1
    30    15    35    1
    31    16    17   am
    32    16    36    1
    33    17    18   am
    34    17    19    2
    35    18    37    1
    36    18    38    1
    37    20    21    1
    38    20    39    1
    39    20    40    1
    40    21    22    1
    41    21    23    1
    42    22    41    1
    43    22    42    1
    44    22    43    1
    45    23    44    1
    46    23    45    1
    47    24    25    2
    48    24    46    1
@<TRIPOS>SUBSTRUCTURE
     1 ZINC001490207225        1 TEMP              0 ****  ****    0 ROOT


##########                                Name:    ZINC001341052241
##########                DOCK_Rotatable_Bonds:                   7
##########                         Heavy_Atoms:                  24
##########                    Molecular_Weight:             336.478
##########                DOCK_Rotatable_Bonds:                   7
##########                       Formal_Charge:         5.96046e-08
##########                     HBond_Acceptors:                   6
##########                        HBond_Donors:                   0
##########                         Heavy_Atoms:                  24
##########                          Grid_Score:          -30.029034
##########                     Grid_vdw_energy:          -29.035902
##########                      Grid_es_energy:           -0.993131
##########           Internal_energy_repulsive:           16.070051

@<TRIPOS>MOLECULE
ZINC001341052241
 56 58 1 0 0
SMALL
USER_CHARGES


@<TRIPOS>ATOM
      1 C1         -8.3900    2.0935   55.0632 C.3     1  ZINC001341052241   -0.1700
      2 C2         -9.0944    2.1804   53.7078 C.3     1  ZINC001341052241    0.1100
      3 N3         -8.9056    0.9244   52.9779 N.pl3   1  ZINC001341052241   -0.4500
      4 C4         -7.8120    0.5505   52.2472 C.2     1  ZINC001341052241    0.1800
      5 C5         -6.5581    1.3599   52.0383 C.3     1  ZINC001341052241    0.1500
      6 O6         -6.7583    2.2794   50.9630 O.3     1  ZINC001341052241   -0.3700
      7 C7         -5.6268    3.1079   50.6884 C.3     1  ZINC001341052241    0.0900
      8 C8         -4.4596    2.2376   50.2186 C.3     1  ZINC001341052241   -0.1400
      9 C9         -3.2481    3.1246   49.9244 C.3     1  ZINC001341052241   -0.1200
     10 C10        -2.8452    3.8754   51.1952 C.3     1  ZINC001341052241   -0.1200
     11 C11        -4.0125    4.7457   51.6651 C.3     1  ZINC001341052241   -0.1200
     12 C12        -5.2240    3.8587   51.9592 C.3     1  ZINC001341052241   -0.1200
     13 N13        -8.0546   -0.6357   51.7657 N.2     1  ZINC001341052241   -0.2600
     14 N14        -9.2158   -1.0360   52.1442 N.2     1  ZINC001341052241   -0.3100
     15 C15        -9.7849   -0.1150   52.8858 C.2     1  ZINC001341052241    0.3500
     16 N16       -11.0394   -0.1869   53.4700 N.3     1  ZINC001341052241   -0.4600
     17 C17       -12.0261   -0.7368   52.5316 C.3     1  ZINC001341052241    0.0700
     18 C18       -13.4212   -0.6664   53.1570 C.3     1  ZINC001341052241   -0.1100
     19 C19       -13.4307   -1.4655   54.4630 C.3     1  ZINC001341052241   -0.0900
     20 C20       -14.8056   -1.3486   55.1239 C.3     1  ZINC001341052241    0.0700
     21 O21       -14.9340   -2.3488   56.1364 O.3     1  ZINC001341052241   -0.3900
     22 C22       -15.5069   -3.5736   55.6741 C.3     1  ZINC001341052241    0.0300
     23 C23       -12.3613   -0.9035   55.4038 C.3     1  ZINC001341052241   -0.1100
     24 C24       -10.9970   -0.9671   54.7134 C.3     1  ZINC001341052241    0.0700
     25 H25        -8.8056    1.2645   55.6361 H       1  ZINC001341052241    0.0600
     26 H26        -7.3235    1.9298   54.9087 H       1  ZINC001341052241    0.0700
     27 H27        -8.5391    3.0243   55.6106 H       1  ZINC001341052241    0.0800
     28 H28        -8.6717    3.0030   53.1308 H       1  ZINC001341052241    0.0900
     29 H29       -10.1593    2.3545   53.8622 H       1  ZINC001341052241    0.1000
     30 H30        -6.3256    1.9113   52.9493 H       1  ZINC001341052241    0.0900
     31 H31        -5.7309    0.6925   51.7965 H       1  ZINC001341052241    0.0700
     32 H32        -5.8824    3.8251   49.9083 H       1  ZINC001341052241    0.0600
     33 H33        -4.2039    1.5205   50.9986 H       1  ZINC001341052241    0.0700
     34 H34        -4.7465    1.7028   49.3132 H       1  ZINC001341052241    0.0700
     35 H35        -3.5036    3.8417   49.1443 H       1  ZINC001341052241    0.0600
     36 H36        -2.4165    2.5045   49.5897 H       1  ZINC001341052241    0.0700
     37 H37        -1.9821    4.5073   50.9857 H       1  ZINC001341052241    0.0600
     38 H38        -2.5897    3.1583   51.9753 H       1  ZINC001341052241    0.0600
     39 H39        -4.2680    5.4629   50.8850 H       1  ZINC001341052241    0.0600
     40 H40        -3.7255    5.2806   52.5704 H       1  ZINC001341052241    0.0700
     41 H41        -6.0556    4.4788   52.2939 H       1  ZINC001341052241    0.0700
     42 H42        -4.9684    3.1416   52.7393 H       1  ZINC001341052241    0.0700
     43 H43       -11.7788   -1.7753   52.3116 H       1  ZINC001341052241    0.0600
     44 H44       -12.0122   -0.1569   51.6088 H       1  ZINC001341052241    0.0800
     45 H45       -14.1512   -1.0887   52.4665 H       1  ZINC001341052241    0.0800
     46 H46       -13.6749    0.3733   53.3646 H       1  ZINC001341052241    0.0800
     47 H47       -13.2164   -2.5129   54.2507 H       1  ZINC001341052241    0.0800
     48 H48       -15.5829   -1.4900   54.3730 H       1  ZINC001341052241    0.0500
     49 H49       -14.9100   -0.3611   55.5734 H       1  ZINC001341052241    0.0500
     50 H50       -16.5059   -3.3824   55.2822 H       1  ZINC001341052241    0.0400
     51 H51       -15.5703   -4.2802   56.5016 H       1  ZINC001341052241    0.0900
     52 H52       -14.8815   -3.9925   54.8857 H       1  ZINC001341052241    0.0400
     53 H53       -12.5984    0.1323   55.6468 H       1  ZINC001341052241    0.0700
     54 H54       -12.3341   -1.4954   56.3187 H       1  ZINC001341052241    0.0800
     55 H55       -10.7544   -2.0045   54.4832 H       1  ZINC001341052241    0.0600
     56 H56       -10.2355   -0.5545   55.3752 H       1  ZINC001341052241    0.0800
@<TRIPOS>BOND
     1     1     2    1
     2     1    25    1
     3     1    26    1
     4     1    27    1
     5     2     3    1
     6     2    28    1
     7     2    29    1
     8     3    15    1
     9     3     4    1
    10     4     5    1
    11     4    13    2
    12     5     6    1
    13     5    30    1
    14     5    31    1
    15     6     7    1
    16     7    12    1
    17     7     8    1
    18     7    32    1
    19     8     9    1
    20     8    33    1
    21     8    34    1
    22     9    10    1
    23     9    35    1
    24     9    36    1
    25    10    11    1
    26    10    37    1
    27    10    38    1
    28    11    12    1
    29    11    39    1
    30    11    40    1
    31    12    41    1
    32    12    42    1
    33    13    14    1
    34    14    15    2
    35    15    16    1
    36    16    24    1
    37    16    17    1
    38    17    18    1
    39    17    43    1
    40    17    44    1
    41    18    19    1
    42    18    45    1
    43    18    46    1
    44    19    20    1
    45    19    23    1
    46    19    47    1
    47    20    21    1
    48    20    48    1
    49    20    49    1
    50    21    22    1
    51    22    50    1
    52    22    51    1
    53    22    52    1
    54    23    24    1
    55    23    53    1
    56    23    54    1
    57    24    55    1
    58    24    56    1
@<TRIPOS>SUBSTRUCTURE
     1 ZINC001341052241        1 TEMP              0 ****  ****    0 ROOT


##########                                Name:    ZINC000506156755
##########                DOCK_Rotatable_Bonds:                   7
##########                         Heavy_Atoms:                  30
##########                    Molecular_Weight:             400.434
##########                DOCK_Rotatable_Bonds:                   7
##########                       Formal_Charge:          -0.0200001
##########                     HBond_Acceptors:                   6
##########                        HBond_Donors:                   1
##########                         Heavy_Atoms:                  30
##########                          Grid_Score:          -30.020237
##########                     Grid_vdw_energy:          -29.552296
##########                      Grid_es_energy:           -0.467942
##########           Internal_energy_repulsive:           12.020700

@<TRIPOS>MOLECULE
ZINC000506156755
 50 53 1 0 0
SMALL
USER_CHARGES


@<TRIPOS>ATOM
      1 C1        -12.0833   -0.3845   54.0664 C.3     1  ZINC000506156755   -0.1600
      2 C2        -10.8421   -0.7774   54.8700 C.3     1  ZINC000506156755    0.1900
      3 H3        -10.1997   -1.4118   54.2594 H       1  ZINC000506156755    0.1000
      4 N4        -11.2499   -1.5085   56.0723 N.am    1  ZINC000506156755   -0.7200
      5 C5        -11.1921   -2.8548   56.0944 C.2     1  ZINC000506156755    0.5000
      6 O6        -10.8039   -3.4611   55.1184 O.2     1  ZINC000506156755   -0.5200
      7 C7        -11.6098   -3.6068   57.3317 C.3     1  ZINC000506156755    0.0900
      8 N8        -11.6124   -2.6960   58.4791 N.am    1  ZINC000506156755   -0.5600
      9 C9        -12.7230   -2.2204   59.0709 C.2     1  ZINC000506156755    0.5800
     10 O10       -13.8647   -2.4741   58.7437 O.2     1  ZINC000506156755   -0.4600
     11 C11       -12.3211   -1.3380   60.1866 C.ar    1  ZINC000506156755   -0.1400
     12 C12       -13.0121   -0.5893   61.1251 C.ar    1  ZINC000506156755   -0.0400
     13 C13       -12.3114    0.1520   62.0643 C.ar    1  ZINC000506156755   -0.0900
     14 C14       -10.9296    0.1487   62.0700 C.ar    1  ZINC000506156755   -0.0900
     15 C15       -10.2246   -0.5959   61.1367 C.ar    1  ZINC000506156755   -0.0400
     16 C16       -10.9113   -1.3413   60.1924 C.ar    1  ZINC000506156755   -0.1400
     17 C17       -10.5045   -2.2297   59.0831 C.2     1  ZINC000506156755    0.5800
     18 O18        -9.3615   -2.4930   58.7686 O.2     1  ZINC000506156755   -0.4600
     19 C19       -10.0881    0.4650   55.2691 C.ar    1  ZINC000506156755   -0.1200
     20 C20       -10.3805    1.0980   56.4613 C.ar    1  ZINC000506156755   -0.0800
     21 C21        -9.6888    2.2377   56.8283 C.ar    1  ZINC000506156755   -0.1400
     22 C22        -8.7028    2.7466   56.0035 C.ar    1  ZINC000506156755   -0.0800
     23 C23        -8.4063    2.1173   54.8099 C.ar    1  ZINC000506156755   -0.1900
     24 C24        -9.0953    0.9706   54.4417 C.ar    1  ZINC000506156755    0.1300
     25 O25        -8.8053    0.3495   53.2685 O.3     1  ZINC000506156755   -0.2500
     26 C26        -8.2434    1.0894   52.2768 C.ar    1  ZINC000506156755    0.0800
     27 C27        -6.9722    0.7807   51.8143 C.ar    1  ZINC000506156755   -0.1400
     28 C28        -6.4033    1.5345   50.8061 C.ar    1  ZINC000506156755   -0.1000
     29 C29        -7.0996    2.5959   50.2580 C.ar    1  ZINC000506156755   -0.1200
     30 C30        -8.3665    2.9057   50.7172 C.ar    1  ZINC000506156755   -0.1000
     31 C31        -8.9422    2.1516   51.7211 C.ar    1  ZINC000506156755   -0.1200
     32 H32       -12.6287   -1.2831   53.7777 H       1  ZINC000506156755    0.0700
     33 H33       -12.7257    0.2499   54.6770 H       1  ZINC000506156755    0.0600
     34 H34       -11.7799    0.1595   53.1719 H       1  ZINC000506156755    0.0700
     35 H35       -11.5615   -1.0236   56.8525 H       1  ZINC000506156755    0.4000
     36 H36       -12.6108   -4.0139   57.1888 H       1  ZINC000506156755    0.1300
     37 H37       -10.9092   -4.4212   57.5158 H       1  ZINC000506156755    0.1300
     38 H38       -14.0921   -0.5827   61.1251 H       1  ZINC000506156755    0.1400
     39 H39       -12.8493    0.7362   62.7962 H       1  ZINC000506156755    0.1400
     40 H40       -10.3950    0.7305   62.8063 H       1  ZINC000506156755    0.1400
     41 H41        -9.1446   -0.5950   61.1461 H       1  ZINC000506156755    0.1400
     42 H42       -11.1506    0.7027   57.1073 H       1  ZINC000506156755    0.1300
     43 H43        -9.9194    2.7314   57.7608 H       1  ZINC000506156755    0.1300
     44 H44        -8.1642    3.6370   56.2923 H       1  ZINC000506156755    0.1300
     45 H45        -7.6363    2.5153   54.1657 H       1  ZINC000506156755    0.1300
     46 H46        -6.4279   -0.0481   52.2422 H       1  ZINC000506156755    0.1300
     47 H47        -5.4138    1.2947   50.4459 H       1  ZINC000506156755    0.1300
     48 H48        -6.6529    3.1843   49.4701 H       1  ZINC000506156755    0.1300
     49 H49        -8.9082    3.7354   50.2874 H       1  ZINC000506156755    0.1300
     50 H50        -9.9319    2.3938   52.0792 H       1  ZINC000506156755    0.1300
@<TRIPOS>BOND
     1     1     2    1
     2     1    32    1
     3     1    33    1
     4     1    34    1
     5     2     3    1
     6     2     4    1
     7     2    19    1
     8     4     5   am
     9     4    35    1
    10     5     6    2
    11     5     7    1
    12     7     8    1
    13     7    36    1
    14     7    37    1
    15     8    17   am
    16     8     9   am
    17     9    10    2
    18     9    11    1
    19    11    16   ar
    20    11    12   ar
    21    12    13   ar
    22    12    38    1
    23    13    14   ar
    24    13    39    1
    25    14    15   ar
    26    14    40    1
    27    15    16   ar
    28    15    41    1
    29    16    17    1
    30    17    18    2
    31    19    24   ar
    32    19    20   ar
    33    20    21   ar
    34    20    42    1
    35    21    22   ar
    36    21    43    1
    37    22    23   ar
    38    22    44    1
    39    23    24   ar
    40    23    45    1
    41    24    25    1
    42    25    26    1
    43    26    31   ar
    44    26    27   ar
    45    27    28   ar
    46    27    46    1
    47    28    29   ar
    48    28    47    1
    49    29    30   ar
    50    29    48    1
    51    30    31   ar
    52    30    49    1
    53    31    50    1
@<TRIPOS>SUBSTRUCTURE
     1 ZINC000506156755        1 TEMP              0 ****  ****    0 ROOT


##########                                Name:    ZINC000489403631
##########                DOCK_Rotatable_Bonds:                   7
##########                         Heavy_Atoms:                  28
##########                    Molecular_Weight:             381.391
##########                DOCK_Rotatable_Bonds:                   7
##########                       Formal_Charge:          -0.0300003
##########                     HBond_Acceptors:                   9
##########                        HBond_Donors:                   1
##########                         Heavy_Atoms:                  28
##########                          Grid_Score:          -30.000267
##########                     Grid_vdw_energy:          -28.348961
##########                      Grid_es_energy:           -1.651306
##########           Internal_energy_repulsive:           11.560243

@<TRIPOS>MOLECULE
ZINC000489403631
 47 49 1 0 0
SMALL
USER_CHARGES


@<TRIPOS>ATOM
      1 C1        -10.8004    0.4834   53.5143 C.3     1  ZINC000489403631   -0.1100
      2 C2         -9.9304    1.0190   54.6220 C.ar    1  ZINC000489403631   -0.0800
      3 C3         -9.9796    0.4455   55.8768 C.ar    1  ZINC000489403631   -0.0900
      4 C4         -9.1777    0.9391   56.8976 C.ar    1  ZINC000489403631    0.1200
      5 N5         -9.2270    0.3572   58.1710 N.am    1  ZINC000489403631   -0.6600
      6 C6        -10.3412    0.4699   58.9208 C.2     1  ZINC000489403631    0.5100
      7 O7        -11.3014    1.0752   58.4931 O.2     1  ZINC000489403631   -0.4600
      8 C8        -10.3941   -0.1561   60.2907 C.3     1  ZINC000489403631    0.1700
      9 C9         -9.3134   -1.2335   60.4011 C.3     1  ZINC000489403631   -0.1700
     10 C10       -10.1530    0.9189   61.3523 C.3     1  ZINC000489403631   -0.1700
     11 N11       -11.7113   -0.7623   60.5000 N.pl3   1  ZINC000489403631   -0.3400
     12 C12       -12.6384   -0.3580   61.3933 C.2     1  ZINC000489403631    0.1500
     13 C13       -13.7105   -1.1748   61.2734 C.2     1  ZINC000489403631   -0.1900
     14 N14       -14.9607   -1.0922   62.0616 N.pl3   1  ZINC000489403631    0.0700
     15 O15       -15.8802   -1.8557   61.8269 O.2     1  ZINC000489403631   -0.1700
     16 O16       -15.0698   -0.2606   62.9449 O.2     1  ZINC000489403631   -0.1600
     17 C17       -13.4289   -2.1105   60.2726 C.2     1  ZINC000489403631    0.1000
     18 N18       -12.2331   -1.8603   59.8041 N.2     1  ZINC000489403631   -0.2200
     19 C19        -8.3271    2.0093   56.6555 C.ar    1  ZINC000489403631   -0.1100
     20 C20        -8.2787    2.5822   55.3999 C.ar    1  ZINC000489403631   -0.1700
     21 C21        -9.0757    2.0849   54.3792 C.ar    1  ZINC000489403631    0.1000
     22 O22        -9.0277    2.6494   53.1432 O.3     1  ZINC000489403631   -0.2500
     23 C23        -7.9137    2.4495   52.3943 C.ar    1  ZINC000489403631    0.1400
     24 C24        -7.4423    3.4407   51.5366 C.ar    1  ZINC000489403631   -0.2000
     25 C25        -6.3062    3.1987   50.7921 C.ar    1  ZINC000489403631    0.1200
     26 N26        -5.6690    2.0468   50.8854 N.ar    1  ZINC000489403631   -0.4900
     27 C27        -6.0844    1.0837   51.6864 C.ar    1  ZINC000489403631    0.1200
     28 C28        -7.2091    1.2502   52.4681 C.ar    1  ZINC000489403631   -0.1800
     29 H29       -10.2664   -0.3028   52.9807 H       1  ZINC000489403631    0.0700
     30 H30       -11.7184    0.0760   53.9380 H       1  ZINC000489403631    0.0700
     31 H31       -11.0458    1.2896   52.8230 H       1  ZINC000489403631    0.0700
     32 H32       -10.6419   -0.3867   56.0647 H       1  ZINC000489403631    0.1500
     33 H33        -8.4591   -0.1268   58.5130 H       1  ZINC000489403631    0.4100
     34 H34        -8.3334   -0.7824   60.2453 H       1  ZINC000489403631    0.1000
     35 H35        -9.3517   -1.6862   61.3919 H       1  ZINC000489403631    0.0900
     36 H36        -9.4853   -1.9994   59.6447 H       1  ZINC000489403631    0.0800
     37 H37       -10.9228    1.6865   61.2736 H       1  ZINC000489403631    0.0800
     38 H38       -10.1912    0.4661   62.3430 H       1  ZINC000489403631    0.0900
     39 H39        -9.1729    1.3700   61.1965 H       1  ZINC000489403631    0.0900
     40 H40       -12.5419    0.4692   62.0809 H       1  ZINC000489403631    0.2000
     41 H41       -14.0868   -2.8999   59.9404 H       1  ZINC000489403631    0.2100
     42 H42        -7.7035    2.3939   57.4490 H       1  ZINC000489403631    0.1300
     43 H43        -7.6170    3.4146   55.2114 H       1  ZINC000489403631    0.1300
     44 H44        -7.9592    4.3853   51.4552 H       1  ZINC000489403631    0.1400
     45 H45        -5.9338    3.9614   50.1242 H       1  ZINC000489403631    0.1600
     46 H46        -5.5347    0.1552   51.7337 H       1  ZINC000489403631    0.1700
     47 H47        -7.5435    0.4581   53.1217 H       1  ZINC000489403631    0.1500
@<TRIPOS>BOND
     1     1     2    1
     2     1    29    1
     3     1    30    1
     4     1    31    1
     5     2    21   ar
     6     2     3   ar
     7     3     4   ar
     8     3    32    1
     9     4     5    1
    10     4    19   ar
    11     5     6   am
    12     5    33    1
    13     6     7    2
    14     6     8    1
    15     8     9    1
    16     8    10    1
    17     8    11    1
    18     9    34    1
    19     9    35    1
    20     9    36    1
    21    10    37    1
    22    10    38    1
    23    10    39    1
    24    11    18    1
    25    11    12    1
    26    12    13    2
    27    12    40    1
    28    13    14    1
    29    13    17    1
    30    14    15    2
    31    14    16    2
    32    17    18    2
    33    17    41    1
    34    19    20   ar
    35    19    42    1
    36    20    21   ar
    37    20    43    1
    38    21    22    1
    39    22    23    1
    40    23    28   ar
    41    23    24   ar
    42    24    25   ar
    43    24    44    1
    44    25    26   ar
    45    25    45    1
    46    26    27   ar
    47    27    28   ar
    48    27    46    1
    49    28    47    1
@<TRIPOS>SUBSTRUCTURE
     1 ZINC000489403631        1 TEMP              0 ****  ****    0 ROOT


##########                                Name:    ZINC001312809190
##########                DOCK_Rotatable_Bonds:                   6
##########                         Heavy_Atoms:                  29
##########                    Molecular_Weight:             395.501
##########                DOCK_Rotatable_Bonds:                   6
##########                       Formal_Charge:           0.0199995
##########                     HBond_Acceptors:                   6
##########                        HBond_Donors:                   1
##########                         Heavy_Atoms:                  29
##########                          Grid_Score:          -30.000160
##########                     Grid_vdw_energy:          -29.168182
##########                      Grid_es_energy:           -0.831978
##########           Internal_energy_repulsive:           33.446579

@<TRIPOS>MOLECULE
ZINC001312809190
 58 61 1 0 0
SMALL
USER_CHARGES


@<TRIPOS>ATOM
      1 C1         -2.9980    2.2634   50.4588 C.3     1  ZINC001312809190    0.0300
      2 O2         -3.1724    2.3266   51.8757 O.3     1  ZINC001312809190   -0.3200
      3 C3         -3.8774    3.3808   52.3640 C.ar    1  ZINC001312809190    0.1300
      4 C4         -4.3067    4.3853   51.5093 C.ar    1  ZINC001312809190   -0.2100
      5 C5         -5.0237    5.4558   52.0081 C.ar    1  ZINC001312809190   -0.0800
      6 C6         -5.3128    5.5267   53.3581 C.ar    1  ZINC001312809190   -0.1300
      7 C7         -4.8855    4.5267   54.2125 C.ar    1  ZINC001312809190   -0.0500
      8 C8         -5.2020    4.6073   55.6837 C.3     1  ZINC001312809190    0.1200
      9 H9         -5.0968    5.6381   56.0220 H       1  ZINC001312809190    0.0500
     10 C10        -4.2353    3.7135   56.4631 C.3     1  ZINC001312809190   -0.1400
     11 N11        -6.5806    4.1549   55.9135 N.3     1  ZINC001312809190   -0.5300
     12 C12        -7.0961    4.6652   57.1909 C.3     1  ZINC001312809190    0.0300
     13 C13        -8.5858    4.3259   57.3090 C.3     1  ZINC001312809190    0.1400
     14 N14        -8.7530    2.8791   57.1043 N.am    1  ZINC001312809190   -0.6300
     15 C15        -9.4465    2.1314   57.9855 C.2     1  ZINC001312809190    0.7100
     16 O16        -9.9438    2.6518   58.9654 O.2     1  ZINC001312809190   -0.5800
     17 N17        -9.5887    0.8069   57.7804 N.am    1  ZINC001312809190   -0.7300
     18 C18       -10.3425   -0.0057   58.7383 C.3     1  ZINC001312809190    0.1800
     19 H19       -11.1552    0.5705   59.1804 H       1  ZINC001312809190    0.1200
     20 C20       -10.8674   -1.2685   58.0829 C.ar    1  ZINC001312809190   -0.1900
     21 C21       -11.5137   -1.4895   56.8873 C.ar    1  ZINC001312809190   -0.0500
     22 C22       -11.8813   -2.7743   56.5273 C.ar    1  ZINC001312809190   -0.1500
     23 C23       -11.5973   -3.8316   57.3713 C.ar    1  ZINC001312809190   -0.0800
     24 C24       -10.9529   -3.6118   58.5714 C.ar    1  ZINC001312809190   -0.1400
     25 C25       -10.5827   -2.3219   58.9427 C.ar    1  ZINC001312809190    0.1100
     26 O26        -9.9638   -1.8822   60.0728 O.3     1  ZINC001312809190   -0.2900
     27 C27        -9.4102   -0.5765   59.8332 C.3     1  ZINC001312809190    0.0800
     28 H28        -8.3864   -0.6524   59.4670 H       1  ZINC001312809190    0.0900
     29 C29        -9.4683    0.2778   61.1010 C.3     1  ZINC001312809190   -0.1500
     30 C30        -8.1439    2.2699   55.9121 C.3     1  ZINC001312809190    0.1200
     31 C31        -6.6717    2.6902   55.8491 C.3     1  ZINC001312809190    0.0400
     32 C32        -4.1738    3.4513   53.7177 C.ar    1  ZINC001312809190   -0.1500
     33 H33        -2.4193    1.3757   50.2032 H       1  ZINC001312809190    0.1000
     34 H34        -3.9733    2.2132   49.9744 H       1  ZINC001312809190    0.0600
     35 H35        -2.4684    3.1529   50.1179 H       1  ZINC001312809190    0.0600
     36 H36        -4.0804    4.3309   50.4546 H       1  ZINC001312809190    0.1300
     37 H37        -5.3581    6.2382   51.3430 H       1  ZINC001312809190    0.1300
     38 H38        -5.8730    6.3644   53.7463 H       1  ZINC001312809190    0.1300
     39 H39        -4.3405    2.6826   56.1248 H       1  ZINC001312809190    0.0700
     40 H40        -3.2124    4.0492   56.2926 H       1  ZINC001312809190    0.0600
     41 H41        -4.4643    3.7718   57.5272 H       1  ZINC001312809190    0.0600
     42 H42        -6.5513    4.2024   58.0139 H       1  ZINC001312809190    0.0400
     43 H43        -6.9651    5.7466   57.2300 H       1  ZINC001312809190    0.1000
     44 H44        -8.9462    4.5996   58.3006 H       1  ZINC001312809190    0.1000
     45 H45        -9.1466    4.8705   56.5494 H       1  ZINC001312809190    0.0700
     46 H46        -9.1921    0.3918   56.9986 H       1  ZINC001312809190    0.4000
     47 H47       -11.7340   -0.6606   56.2310 H       1  ZINC001312809190    0.1200
     48 H48       -12.3886   -2.9502   55.5902 H       1  ZINC001312809190    0.1300
     49 H49       -11.8816   -4.8347   57.0902 H       1  ZINC001312809190    0.1300
     50 H50       -10.7351   -4.4433   59.2253 H       1  ZINC001312809190    0.1300
     51 H51        -8.8753   -0.1940   61.8846 H       1  ZINC001312809190    0.0800
     52 H52        -9.0681    1.2694   60.8897 H       1  ZINC001312809190    0.0800
     53 H53       -10.5030    0.3666   61.4324 H       1  ZINC001312809190    0.0700
     54 H54        -8.2122    1.1842   55.9804 H       1  ZINC001312809190    0.0800
     55 H55        -8.6623    2.6169   55.0183 H       1  ZINC001312809190    0.0800
     56 H56        -6.2329    2.3391   54.9151 H       1  ZINC001312809190    0.0900
     57 H57        -6.1328    2.2549   56.6907 H       1  ZINC001312809190    0.0400
     58 H58        -3.8406    2.6705   54.3853 H       1  ZINC001312809190    0.1300
@<TRIPOS>BOND
     1     1     2    1
     2     1    33    1
     3     1    34    1
     4     1    35    1
     5     2     3    1
     6     3    32   ar
     7     3     4   ar
     8     4     5   ar
     9     4    36    1
    10     5     6   ar
    11     5    37    1
    12     6     7   ar
    13     6    38    1
    14     7     8    1
    15     7    32   ar
    16     8     9    1
    17     8    10    1
    18     8    11    1
    19    10    39    1
    20    10    40    1
    21    10    41    1
    22    11    31    1
    23    11    12    1
    24    12    13    1
    25    12    42    1
    26    12    43    1
    27    13    14    1
    28    13    44    1
    29    13    45    1
    30    14    15   am
    31    14    30    1
    32    15    16    2
    33    15    17   am
    34    17    18    1
    35    17    46    1
    36    18    19    1
    37    18    27    1
    38    18    20    1
    39    20    25   ar
    40    20    21   ar
    41    21    22   ar
    42    21    47    1
    43    22    23   ar
    44    22    48    1
    45    23    24   ar
    46    23    49    1
    47    24    25   ar
    48    24    50    1
    49    25    26    1
    50    26    27    1
    51    27    28    1
    52    27    29    1
    53    29    51    1
    54    29    52    1
    55    29    53    1
    56    30    31    1
    57    30    54    1
    58    30    55    1
    59    31    56    1
    60    31    57    1
    61    32    58    1
@<TRIPOS>SUBSTRUCTURE
     1 ZINC001312809190        1 TEMP              0 ****  ****    0 ROOT


##########                                Name:    ZINC000518242403
##########                DOCK_Rotatable_Bonds:                   6
##########                         Heavy_Atoms:                  27
##########                    Molecular_Weight:             370.405
##########                DOCK_Rotatable_Bonds:                   6
##########                       Formal_Charge:          -0.0200004
##########                     HBond_Acceptors:                   7
##########                        HBond_Donors:                   1
##########                         Heavy_Atoms:                  27
##########                          Grid_Score:          -29.968006
##########                     Grid_vdw_energy:          -28.715740
##########                      Grid_es_energy:           -1.252267
##########           Internal_energy_repulsive:           13.570866

@<TRIPOS>MOLECULE
ZINC000518242403
 49 52 1 0 0
SMALL
USER_CHARGES


@<TRIPOS>ATOM
      1 C1        -10.6116    0.3001   63.0170 C.3     1  ZINC000518242403   -0.1800
      2 C2         -9.9842   -0.2695   61.7432 C.3     1  ZINC000518242403    0.1000
      3 N3        -10.9079   -0.0882   60.6207 N.am    1  ZINC000518242403   -0.6200
      4 C4        -11.0031    1.2124   59.9530 C.3     1  ZINC000518242403    0.1500
      5 C5         -9.6388    1.5882   59.3716 C.3     1  ZINC000518242403    0.0300
      6 H6         -8.9044    1.6597   60.1739 H       1  ZINC000518242403    0.0900
      7 C7         -9.1966    0.5231   58.3589 C.3     1  ZINC000518242403    0.0300
      8 O8         -7.9262    0.9119   57.8253 O.3     1  ZINC000518242403   -0.3000
      9 C9         -7.7976    2.2098   57.4362 C.ar    1  ZINC000518242403    0.0500
     10 C10        -6.7549    2.5682   56.5954 C.ar    1  ZINC000518242403   -0.1100
     11 C11        -6.6094    3.8831   56.1942 C.ar    1  ZINC000518242403   -0.1200
     12 C12        -7.5025    4.8438   56.6296 C.ar    1  ZINC000518242403   -0.1200
     13 C13        -8.5453    4.4929   57.4667 C.ar    1  ZINC000518242403   -0.1100
     14 C14        -8.6976    3.1755   57.8721 C.ar    1  ZINC000518242403    0.0500
     15 O15        -9.7335    2.8441   58.6905 O.3     1  ZINC000518242403   -0.3000
     16 C16       -11.6701   -1.1179   60.2021 C.2     1  ZINC000518242403    0.7100
     17 O17       -11.5922   -2.1970   60.7572 O.2     1  ZINC000518242403   -0.5700
     18 N18       -12.5187   -0.9517   59.1684 N.am    1  ZINC000518242403   -0.6800
     19 C19       -13.3112   -2.0224   58.7332 C.ar    1  ZINC000518242403    0.1700
     20 C20       -12.8244   -2.9021   57.7763 C.ar    1  ZINC000518242403   -0.1000
     21 C21       -13.6079   -3.9604   57.3468 C.ar    1  ZINC000518242403    0.0500
     22 C22       -14.8835   -4.1394   57.8766 C.ar    1  ZINC000518242403    0.0200
     23 C23       -15.3659   -3.2586   58.8311 C.ar    1  ZINC000518242403   -0.0800
     24 C24       -14.5811   -2.2066   59.2633 C.ar    1  ZINC000518242403   -0.1000
     25 C25       -15.1092   -1.2504   60.3016 C.3     1  ZINC000518242403   -0.1100
     26 O26       -15.4458   -5.2409   57.2965 O.3     1  ZINC000518242403   -0.3100
     27 C27       -14.6643   -5.4934   56.1138 C.3     1  ZINC000518242403    0.2100
     28 O28       -13.3710   -4.9488   56.4357 O.3     1  ZINC000518242403   -0.3100
     29 H29       -10.8122    1.3626   62.8795 H       1  ZINC000518242403    0.0600
     30 H30       -11.5453   -0.2218   63.2269 H       1  ZINC000518242403    0.0600
     31 H31        -9.9243    0.1652   63.8522 H       1  ZINC000518242403    0.0700
     32 H32        -9.0505    0.2525   61.5334 H       1  ZINC000518242403    0.1000
     33 H33        -9.7835   -1.3320   61.8806 H       1  ZINC000518242403    0.0700
     34 H34       -11.7373    1.1554   59.1494 H       1  ZINC000518242403    0.1100
     35 H35       -11.3117    1.9692   60.6742 H       1  ZINC000518242403    0.0900
     36 H36        -9.1065   -0.4424   58.8566 H       1  ZINC000518242403    0.1300
     37 H37        -9.9282    0.4554   57.5537 H       1  ZINC000518242403    0.0800
     38 H38        -6.0555    1.8194   56.2539 H       1  ZINC000518242403    0.1300
     39 H39        -5.7967    4.1601   55.5392 H       1  ZINC000518242403    0.1300
     40 H40        -7.3856    5.8703   56.3156 H       1  ZINC000518242403    0.1300
     41 H41        -9.2418    5.2454   57.8056 H       1  ZINC000518242403    0.1300
     42 H42       -12.5809   -0.0909   58.7255 H       1  ZINC000518242403    0.4100
     43 H43       -11.8352   -2.7612   57.3666 H       1  ZINC000518242403    0.1500
     44 H44       -16.3550   -3.3975   59.2419 H       1  ZINC000518242403    0.1400
     45 H45       -14.8496   -1.6141   61.2958 H       1  ZINC000518242403    0.0800
     46 H46       -14.6667   -0.2662   60.1477 H       1  ZINC000518242403    0.0700
     47 H47       -16.1931   -1.1794   60.2122 H       1  ZINC000518242403    0.0800
     48 H48       -14.5925   -6.5642   55.9235 H       1  ZINC000518242403    0.1300
     49 H49       -15.0935   -4.9786   55.2541 H       1  ZINC000518242403    0.0900
@<TRIPOS>BOND
     1     1     2    1
     2     1    29    1
     3     1    30    1
     4     1    31    1
     5     2     3    1
     6     2    32    1
     7     2    33    1
     8     3     4    1
     9     3    16   am
    10     4     5    1
    11     4    34    1
    12     4    35    1
    13     5     6    1
    14     5    15    1
    15     5     7    1
    16     7     8    1
    17     7    36    1
    18     7    37    1
    19     8     9    1
    20     9    14   ar
    21     9    10   ar
    22    10    11   ar
    23    10    38    1
    24    11    12   ar
    25    11    39    1
    26    12    13   ar
    27    12    40    1
    28    13    14   ar
    29    13    41    1
    30    14    15    1
    31    16    17    2
    32    16    18   am
    33    18    19    1
    34    18    42    1
    35    19    24   ar
    36    19    20   ar
    37    20    21   ar
    38    20    43    1
    39    21    28    1
    40    21    22   ar
    41    22    23   ar
    42    22    26    1
    43    23    24   ar
    44    23    44    1
    45    24    25    1
    46    25    45    1
    47    25    46    1
    48    25    47    1
    49    26    27    1
    50    27    28    1
    51    27    48    1
    52    27    49    1
@<TRIPOS>SUBSTRUCTURE
     1 ZINC000518242403        1 TEMP              0 ****  ****    0 ROOT


##########                                Name:    ZINC000676564986
##########                DOCK_Rotatable_Bonds:                   5
##########                         Heavy_Atoms:                  25
##########                    Molecular_Weight:             347.444
##########                DOCK_Rotatable_Bonds:                   5
##########                       Formal_Charge:          -0.0100005
##########                     HBond_Acceptors:                   6
##########                        HBond_Donors:                   1
##########                         Heavy_Atoms:                  25
##########                          Grid_Score:          -29.955114
##########                     Grid_vdw_energy:          -29.584072
##########                      Grid_es_energy:           -0.371043
##########           Internal_energy_repulsive:            5.345435

@<TRIPOS>MOLECULE
ZINC000676564986
 42 45 1 0 0
SMALL
USER_CHARGES


@<TRIPOS>ATOM
      1 C1         -7.2041    3.0687   51.8595 C.3     1  ZINC000676564986    0.0800
      2 N2         -7.7645    1.7284   52.0488 N.pl3   1  ZINC000676564986   -0.4800
      3 C3         -7.0585    0.5803   52.2529 C.2     1  ZINC000676564986    0.2500
      4 N4         -7.8737   -0.4261   52.3810 N.2     1  ZINC000676564986   -0.4600
      5 C5         -9.1509    0.0109   52.2675 C.ar    1  ZINC000676564986   -0.1100
      6 C6        -10.4136   -0.6033   52.3181 C.ar    1  ZINC000676564986    0.5100
      7 N7        -10.5300   -1.9664   52.5271 N.pl3   1  ZINC000676564986   -0.6900
      8 C8        -11.8028   -2.5316   52.9819 C.3     1  ZINC000676564986    0.1700
      9 C9        -11.8771   -2.4566   54.4852 C.ar    1  ZINC000676564986   -0.0800
     10 C10       -12.8452   -1.6758   55.0900 C.ar    1  ZINC000676564986   -0.1100
     11 C11       -12.9163   -1.6047   56.4671 C.ar    1  ZINC000676564986   -0.0700
     12 C12       -12.0133   -2.3188   57.2456 C.ar    1  ZINC000676564986   -0.1300
     13 S13       -12.1005   -2.2316   59.0032 S.3     1  ZINC000676564986   -0.0100
     14 C14       -13.7825   -2.6367   59.3373 C.ar    1  ZINC000676564986   -0.1000
     15 C15       -14.4799   -3.4782   58.4789 C.ar    1  ZINC000676564986   -0.1200
     16 C16       -15.7977   -3.7939   58.7441 C.ar    1  ZINC000676564986   -0.1000
     17 C17       -16.4237   -3.2737   59.8623 C.ar    1  ZINC000676564986   -0.1200
     18 C18       -15.7328   -2.4359   60.7187 C.ar    1  ZINC000676564986   -0.1000
     19 C19       -14.4131   -2.1201   60.4627 C.ar    1  ZINC000676564986   -0.1000
     20 C20       -11.0418   -3.1024   56.6344 C.ar    1  ZINC000676564986   -0.0700
     21 C21       -10.9803   -3.1732   55.2568 C.ar    1  ZINC000676564986   -0.1100
     22 N22       -11.4936    0.1552   52.1609 N.ar    1  ZINC000676564986   -0.5900
     23 C23       -11.3922    1.4565   51.9616 C.ar    1  ZINC000676564986    0.3600
     24 N24       -10.2310    2.0745   51.9063 N.ar    1  ZINC000676564986   -0.5600
     25 C25        -9.0966    1.3995   52.0588 C.ar    1  ZINC000676564986    0.3000
     26 H26        -7.0960    3.5574   52.8278 H       1  ZINC000676564986    0.0800
     27 H27        -6.2277    2.9901   51.3812 H       1  ZINC000676564986    0.0900
     28 H28        -7.8715    3.6559   51.2288 H       1  ZINC000676564986    0.0900
     29 H29        -5.9816    0.5154   52.3008 H       1  ZINC000676564986    0.2200
     30 H30        -9.7690   -2.5476   52.3724 H       1  ZINC000676564986    0.4200
     31 H31       -12.6273   -1.9654   52.5486 H       1  ZINC000676564986    0.0800
     32 H32       -11.8716   -3.5727   52.6663 H       1  ZINC000676564986    0.0800
     33 H33       -13.5464   -1.1208   54.4844 H       1  ZINC000676564986    0.1300
     34 H34       -13.6723   -0.9945   56.9387 H       1  ZINC000676564986    0.1400
     35 H35       -13.9919   -3.8845   57.6053 H       1  ZINC000676564986    0.1200
     36 H36       -16.3404   -4.4475   58.0773 H       1  ZINC000676564986    0.1300
     37 H37       -17.4546   -3.5220   60.0670 H       1  ZINC000676564986    0.1300
     38 H38       -16.2246   -2.0315   61.5910 H       1  ZINC000676564986    0.1300
     39 H39       -13.8741   -1.4660   61.1320 H       1  ZINC000676564986    0.1300
     40 H40       -10.3385   -3.6587   57.2363 H       1  ZINC000676564986    0.1300
     41 H41       -10.2256   -3.7819   54.7812 H       1  ZINC000676564986    0.1300
     42 H42       -12.2954    2.0356   51.8387 H       1  ZINC000676564986    0.2000
@<TRIPOS>BOND
     1     1     2    1
     2     1    26    1
     3     1    27    1
     4     1    28    1
     5     2    25    1
     6     2     3    1
     7     3     4    2
     8     3    29    1
     9     4     5    1
    10     5    25   ar
    11     5     6   ar
    12     6     7    1
    13     6    22   ar
    14     7     8    1
    15     7    30    1
    16     8     9    1
    17     8    31    1
    18     8    32    1
    19     9    21   ar
    20     9    10   ar
    21    10    11   ar
    22    10    33    1
    23    11    12   ar
    24    11    34    1
    25    12    13    1
    26    12    20   ar
    27    13    14    1
    28    14    19   ar
    29    14    15   ar
    30    15    16   ar
    31    15    35    1
    32    16    17   ar
    33    16    36    1
    34    17    18   ar
    35    17    37    1
    36    18    19   ar
    37    18    38    1
    38    19    39    1
    39    20    21   ar
    40    20    40    1
    41    21    41    1
    42    22    23   ar
    43    23    24   ar
    44    23    42    1
    45    24    25   ar
@<TRIPOS>SUBSTRUCTURE
     1 ZINC000676564986        1 TEMP              0 ****  ****    0 ROOT


##########                                Name:    ZINC001078110631
##########                DOCK_Rotatable_Bonds:                   7
##########                         Heavy_Atoms:                  25
##########                    Molecular_Weight:             353.369
##########                DOCK_Rotatable_Bonds:                   7
##########                       Formal_Charge:           0.0100006
##########                     HBond_Acceptors:                   8
##########                        HBond_Donors:                   2
##########                         Heavy_Atoms:                  25
##########                          Grid_Score:          -29.942009
##########                     Grid_vdw_energy:          -30.534399
##########                      Grid_es_energy:            0.592391
##########           Internal_energy_repulsive:            4.916645

@<TRIPOS>MOLECULE
ZINC001078110631
 46 48 1 0 0
SMALL
USER_CHARGES


@<TRIPOS>ATOM
      1 O1         -7.1570    2.6978   49.6067 O.2     1  ZINC001078110631   -0.5100
      2 C2         -6.9458    2.2503   50.7174 C.2     1  ZINC001078110631    0.5600
      3 N3         -5.7618    2.4751   51.3206 N.am    1  ZINC001078110631   -0.7200
      4 C4         -4.7268    3.2535   50.6355 C.3     1  ZINC001078110631    0.1500
      5 H5         -5.1391    3.7306   49.7465 H       1  ZINC001078110631    0.1200
      6 C6         -3.5376    2.3458   50.2543 C.3     1  ZINC001078110631    0.0300
      7 N7         -2.3367    3.1956   50.4611 N.3     1  ZINC001078110631   -0.5000
      8 C8         -1.1312    2.3723   50.6254 C.3     1  ZINC001078110631    0.0300
      9 C9          0.1063    3.2719   50.6124 C.3     1  ZINC001078110631    0.1300
     10 N10         1.3121    2.4449   50.7040 N.am    1  ZINC001078110631   -0.6200
     11 C11         2.0194    1.8815   49.5479 C.3     1  ZINC001078110631    0.1000
     12 C12         3.4157    1.4813   50.0742 C.3     1  ZINC001078110631   -0.1300
     13 C13         3.1333    1.2556   51.5776 C.3     1  ZINC001078110631   -0.1600
     14 C14         1.9160    2.1094   51.8570 C.2     1  ZINC001078110631    0.5200
     15 O15         1.5360    2.4373   52.9611 O.2     1  ZINC001078110631   -0.5200
     16 C16        -2.6363    3.9548   51.7024 C.3     1  ZINC001078110631    0.0000
     17 C17        -4.1357    4.3137   51.5874 C.3     1  ZINC001078110631    0.1000
     18 H18        -4.6152    4.2544   52.5645 H       1  ZINC001078110631    0.0700
     19 O19        -4.2918    5.6235   51.0375 O.3     1  ZINC001078110631   -0.5500
     20 C20        -7.9884    1.4663   51.4075 C.ar    1  ZINC001078110631   -0.1900
     21 C21        -7.8623    0.0799   51.5227 C.ar    1  ZINC001078110631   -0.0300
     22 C22        -8.8386   -0.6474   52.1679 C.ar    1  ZINC001078110631   -0.1700
     23 C23        -9.9463   -0.0069   52.7034 C.ar    1  ZINC001078110631    0.1600
     24 F24       -10.8996   -0.7266   53.3346 F       1  ZINC001078110631   -0.1200
     25 C25       -10.0792    1.3678   52.5941 C.ar    1  ZINC001078110631   -0.2000
     26 C26        -9.1047    2.1092   51.9541 C.ar    1  ZINC001078110631    0.2000
     27 F27        -9.2342    3.4497   51.8475 F       1  ZINC001078110631   -0.1000
     28 H28        -5.5949    2.1216   52.2084 H       1  ZINC001078110631    0.4000
     29 H29        -3.5020    1.4724   50.9055 H       1  ZINC001078110631    0.0500
     30 H30        -3.6120    2.0402   49.2107 H       1  ZINC001078110631    0.1000
     31 H31        -1.1825    1.8385   51.5743 H       1  ZINC001078110631    0.0400
     32 H32        -1.0672    1.6545   49.8077 H       1  ZINC001078110631    0.0800
     33 H33         0.1288    3.8457   49.6859 H       1  ZINC001078110631    0.0900
     34 H34         0.0684    3.9543   51.4615 H       1  ZINC001078110631    0.0800
     35 H35         1.4918    1.0043   49.1737 H       1  ZINC001078110631    0.0700
     36 H36         2.1132    2.6303   48.7614 H       1  ZINC001078110631    0.0800
     37 H37         3.7626    0.5631   49.6004 H       1  ZINC001078110631    0.0900
     38 H38         4.1334    2.2888   49.9290 H       1  ZINC001078110631    0.0800
     39 H39         2.9196    0.2046   51.7721 H       1  ZINC001078110631    0.1100
     40 H40         3.9778    1.5920   52.1791 H       1  ZINC001078110631    0.1000
     41 H41        -2.4596    3.3332   52.5802 H       1  ZINC001078110631    0.0600
     42 H42        -2.0319    4.8608   51.7491 H       1  ZINC001078110631    0.0900
     43 H43        -5.2123    5.9070   50.9519 H       1  ZINC001078110631    0.3800
     44 H44        -7.0010   -0.4212   51.1064 H       1  ZINC001078110631    0.1500
     45 H45        -8.7413   -1.7193   52.2567 H       1  ZINC001078110631    0.1500
     46 H46       -10.9439    1.8611   53.0129 H       1  ZINC001078110631    0.1600
@<TRIPOS>BOND
     1     1     2    2
     2     2     3   am
     3     2    20    1
     4     3     4    1
     5     3    28    1
     6     4     5    1
     7     4    17    1
     8     4     6    1
     9     6     7    1
    10     6    29    1
    11     6    30    1
    12     7     8    1
    13     7    16    1
    14     8     9    1
    15     8    31    1
    16     8    32    1
    17     9    10    1
    18     9    33    1
    19     9    34    1
    20    10    14   am
    21    10    11    1
    22    11    12    1
    23    11    35    1
    24    11    36    1
    25    12    13    1
    26    12    37    1
    27    12    38    1
    28    13    14    1
    29    13    39    1
    30    13    40    1
    31    14    15    2
    32    16    17    1
    33    16    41    1
    34    16    42    1
    35    17    18    1
    36    17    19    1
    37    19    43    1
    38    20    26   ar
    39    20    21   ar
    40    21    22   ar
    41    21    44    1
    42    22    23   ar
    43    22    45    1
    44    23    24    1
    45    23    25   ar
    46    25    26   ar
    47    25    46    1
    48    26    27    1
@<TRIPOS>SUBSTRUCTURE
     1 ZINC001078110631        1 TEMP              0 ****  ****    0 ROOT


##########                                Name:    ZINC000948289723
##########                DOCK_Rotatable_Bonds:                   6
##########                         Heavy_Atoms:                  24
##########                    Molecular_Weight:             331.415
##########                DOCK_Rotatable_Bonds:                   6
##########                       Formal_Charge:           0.0599999
##########                     HBond_Acceptors:                   6
##########                        HBond_Donors:                   1
##########                         Heavy_Atoms:                  24
##########                          Grid_Score:          -29.935421
##########                     Grid_vdw_energy:          -28.228487
##########                      Grid_es_energy:           -1.706935
##########           Internal_energy_repulsive:            7.628386

@<TRIPOS>MOLECULE
ZINC000948289723
 49 52 1 0 0
SMALL
USER_CHARGES


@<TRIPOS>ATOM
      1 C1        -13.8778   -4.0579   55.9176 C.3     1  ZINC000948289723   -0.1400
      2 C2        -12.7844   -2.9887   55.9648 C.3     1  ZINC000948289723   -0.1100
      3 C3        -12.7512   -2.1993   57.2840 C.3     1  ZINC000948289723   -0.1100
      4 C4        -11.2174   -2.2665   57.1944 C.3     1  ZINC000948289723   -0.1400
      5 C5        -10.5456   -2.5136   58.5205 C.2     1  ZINC000948289723    0.5400
      6 O6        -10.1338   -3.6209   58.7948 O.2     1  ZINC000948289723   -0.5300
      7 N7        -10.4023   -1.5040   59.4018 N.am    1  ZINC000948289723   -0.6200
      8 C8        -10.8530   -0.1193   59.1990 C.3     1  ZINC000948289723    0.1100
      9 C9        -10.5018    0.6688   60.4785 C.3     1  ZINC000948289723   -0.1100
     10 H10        -9.5534    1.1929   60.3605 H       1  ZINC000948289723    0.1000
     11 C11       -11.6201    1.6508   60.8337 C.3     1  ZINC000948289723   -0.1400
     12 C12       -10.3833   -0.4456   61.5516 C.3     1  ZINC000948289723    0.1400
     13 H13       -11.3640   -0.7194   61.9404 H       1  ZINC000948289723    0.1200
     14 N14        -9.4869   -0.0372   62.6360 N.am    1  ZINC000948289723   -0.7100
     15 C15        -9.9977    0.4131   63.7990 C.2     1  ZINC000948289723    0.6100
     16 O16       -11.2024    0.4789   63.9489 O.2     1  ZINC000948289723   -0.5000
     17 C17        -9.0951    0.8259   64.8904 C.2     1  ZINC000948289723   -0.0900
     18 C18        -7.7271    0.8277   64.8698 C.2     1  ZINC000948289723   -0.1400
     19 C19        -7.3704    1.3070   66.1499 C.2     1  ZINC000948289723    0.0500
     20 C20        -5.9739    1.5136   66.6775 C.3     1  ZINC000948289723   -0.0900
     21 C21        -4.8476    1.6678   65.6535 C.3     1  ZINC000948289723   -0.1600
     22 C22        -5.3282    2.8820   66.4507 C.3     1  ZINC000948289723   -0.1600
     23 N23        -8.4832    1.5358   66.7843 N.2     1  ZINC000948289723   -0.3300
     24 O24        -9.4512    1.2827   66.1058 O.3     1  ZINC000948289723    0.1200
     25 C25        -9.7734   -1.6066   60.7312 C.3     1  ZINC000948289723    0.0900
     26 C26       -11.4011   -3.5388   56.3504 C.3     1  ZINC000948289723   -0.1200
     27 H27       -13.9745   -4.5222   56.8990 H       1  ZINC000948289723    0.0600
     28 H28       -14.8252   -3.5966   55.6389 H       1  ZINC000948289723    0.0600
     29 H29       -13.6126   -4.8165   55.1812 H       1  ZINC000948289723    0.0600
     30 H30       -12.7710   -2.3574   55.0761 H       1  ZINC000948289723    0.0900
     31 H31       -13.1497   -1.1883   57.1981 H       1  ZINC000948289723    0.0700
     32 H32       -13.1635   -2.7473   58.1312 H       1  ZINC000948289723    0.1000
     33 H33       -10.7754   -1.4359   56.6442 H       1  ZINC000948289723    0.1100
     34 H34       -10.3387    0.3163   58.3424 H       1  ZINC000948289723    0.0800
     35 H35       -11.9306   -0.1003   59.0360 H       1  ZINC000948289723    0.0800
     36 H36       -12.5520    1.1038   60.9764 H       1  ZINC000948289723    0.0600
     37 H37       -11.3631    2.1771   61.7529 H       1  ZINC000948289723    0.0600
     38 H38       -11.7418    2.3709   60.0245 H       1  ZINC000948289723    0.0700
     39 H39        -8.5257   -0.0909   62.5169 H       1  ZINC000948289723    0.4100
     40 H40        -7.0726    0.5313   64.0635 H       1  ZINC000948289723    0.1800
     41 H41        -5.7414    0.9953   67.6078 H       1  ZINC000948289723    0.1300
     42 H42        -3.8737    1.2508   65.9100 H       1  ZINC000948289723    0.1100
     43 H43        -5.1166    1.6198   64.5983 H       1  ZINC000948289723    0.1000
     44 H44        -5.9136    3.6329   65.9199 H       1  ZINC000948289723    0.1000
     45 H45        -4.6707    3.2639   67.2315 H       1  ZINC000948289723    0.1100
     46 H46       -10.0113   -2.5643   61.1943 H       1  ZINC000948289723    0.0900
     47 H47        -8.6938   -1.4839   60.6448 H       1  ZINC000948289723    0.0800
     48 H48       -11.4443   -4.4530   56.9423 H       1  ZINC000948289723    0.0900
     49 H49       -10.7097   -3.6094   55.5108 H       1  ZINC000948289723    0.0800
@<TRIPOS>BOND
     1     1     2    1
     2     1    27    1
     3     1    28    1
     4     1    29    1
     5     2    26    1
     6     2     3    1
     7     2    30    1
     8     3     4    1
     9     3    31    1
    10     3    32    1
    11     4     5    1
    12     4    26    1
    13     4    33    1
    14     5     6    2
    15     5     7   am
    16     7    25    1
    17     7     8    1
    18     8     9    1
    19     8    34    1
    20     8    35    1
    21     9    10    1
    22     9    11    1
    23     9    12    1
    24    11    36    1
    25    11    37    1
    26    11    38    1
    27    12    13    1
    28    12    14    1
    29    12    25    1
    30    14    15   am
    31    14    39    1
    32    15    16    2
    33    15    17    1
    34    17    24    1
    35    17    18    2
    36    18    19    1
    37    18    40    1
    38    19    20    1
    39    19    23    2
    40    20    22    1
    41    20    21    1
    42    20    41    1
    43    21    22    1
    44    21    42    1
    45    21    43    1
    46    22    44    1
    47    22    45    1
    48    23    24    1
    49    25    46    1
    50    25    47    1
    51    26    48    1
    52    26    49    1
@<TRIPOS>SUBSTRUCTURE
     1 ZINC000948289723        1 TEMP              0 ****  ****    0 ROOT


##########                                Name:    ZINC000504860563
##########                DOCK_Rotatable_Bonds:                   6
##########                         Heavy_Atoms:                  25
##########                    Molecular_Weight:             370.786
##########                DOCK_Rotatable_Bonds:                   6
##########                       Formal_Charge:                0.01
##########                     HBond_Acceptors:                   9
##########                        HBond_Donors:                   0
##########                         Heavy_Atoms:                  25
##########                          Grid_Score:          -29.934380
##########                     Grid_vdw_energy:          -28.987856
##########                      Grid_es_energy:           -0.946524
##########           Internal_energy_repulsive:           14.081855

@<TRIPOS>MOLECULE
ZINC000504860563
 42 44 1 0 0
SMALL
USER_CHARGES


@<TRIPOS>ATOM
      1 O1        -11.0487   -4.4899   57.5974 O.2     1  ZINC000504860563   -0.5100
      2 C2        -11.5922   -3.4042   57.6558 C.2     1  ZINC000504860563    0.5700
      3 C3        -12.9327   -3.2158   57.0615 C.ar    1  ZINC000504860563    0.0500
      4 N4        -14.0102   -3.6286   57.7197 N.ar    1  ZINC000504860563   -0.4100
      5 C5        -15.2193   -3.4797   57.2270 C.ar    1  ZINC000504860563    0.0600
      6 C6        -15.4203   -2.8815   55.9917 C.ar    1  ZINC000504860563   -0.1000
      7 C7        -14.3300   -2.4346   55.2669 C.ar    1  ZINC000504860563   -0.1700
      8 C8        -13.0586   -2.5986   55.8121 C.ar    1  ZINC000504860563    0.1400
      9 O9        -11.9598   -2.1757   55.1384 O.3     1  ZINC000504860563   -0.2600
     10 C10       -12.1729   -1.5884   53.8533 C.3     1  ZINC000504860563   -0.0100
     11 C11       -10.8295   -1.1611   53.2586 C.3     1  ZINC000504860563    0.2800
     12 F12       -11.0455   -0.5082   52.0402 F       1  ZINC000504860563   -0.1900
     13 F13       -10.1824   -0.2929   54.1445 F       1  ZINC000504860563   -0.1900
     14 N14       -10.9753   -2.3736   58.2672 N.am    1  ZINC000504860563   -0.6000
     15 C15       -11.6246   -1.0587   58.3563 C.3     1  ZINC000504860563    0.0800
     16 C16       -11.6475   -0.6185   59.8234 C.3     1  ZINC000504860563   -0.1500
     17 C17       -10.2245   -0.6561   60.3853 C.3     1  ZINC000504860563    0.1600
     18 N18       -10.2378   -0.2041   61.7787 N.pl3   1  ZINC000504860563   -0.3600
     19 C19        -9.2193   -0.3120   62.6588 C.2     1  ZINC000504860563    0.0700
     20 C20        -9.6301    0.2228   63.8326 C.2     1  ZINC000504860563   -0.1900
     21 Cl21       -8.6924    0.3317   65.2895 Cl      1  ZINC000504860563   -0.0400
     22 C22       -10.9443    0.6728   63.6637 C.2     1  ZINC000504860563    0.0600
     23 N23       -11.3073    0.4221   62.4319 N.2     1  ZINC000504860563   -0.2800
     24 C24        -9.6855   -2.0870   60.3186 C.3     1  ZINC000504860563   -0.1400
     25 C25        -9.6430   -2.5454   58.8625 C.3     1  ZINC000504860563    0.1200
     26 H26       -16.0702   -3.8291   57.7929 H       1  ZINC000504860563    0.1700
     27 H27       -16.4197   -2.7660   55.5988 H       1  ZINC000504860563    0.1500
     28 H28       -14.4617   -1.9658   54.3029 H       1  ZINC000504860563    0.1500
     29 H29       -12.6464   -2.3168   53.1949 H       1  ZINC000504860563    0.1000
     30 H30       -12.8191   -0.7165   53.9549 H       1  ZINC000504860563    0.1000
     31 H31       -10.2086   -2.0415   53.0940 H       1  ZINC000504860563    0.1300
     32 H32       -11.0644   -0.3338   57.7660 H       1  ZINC000504860563    0.0700
     33 H33       -12.6452   -1.1289   57.9800 H       1  ZINC000504860563    0.1600
     34 H34       -12.0393    0.3963   59.8927 H       1  ZINC000504860563    0.0900
     35 H35       -12.2827   -1.2942   60.3963 H       1  ZINC000504860563    0.0700
     36 H36        -9.5841    0.0007   59.7965 H       1  ZINC000504860563    0.1100
     37 H37        -8.2508   -0.7475   62.4618 H       1  ZINC000504860563    0.1800
     38 H38       -11.5528    1.1482   64.4188 H       1  ZINC000504860563    0.1900
     39 H39        -8.6809   -2.1172   60.7404 H       1  ZINC000504860563    0.0900
     40 H40       -10.3392   -2.7488   60.8867 H       1  ZINC000504860563    0.0800
     41 H41        -9.3543   -3.5955   58.8183 H       1  ZINC000504860563    0.1000
     42 H42        -8.9220   -1.9425   58.3104 H       1  ZINC000504860563    0.0800
@<TRIPOS>BOND
     1     1     2    2
     2     2     3    1
     3     2    14   am
     4     3     8   ar
     5     3     4   ar
     6     4     5   ar
     7     5     6   ar
     8     5    26    1
     9     6     7   ar
    10     6    27    1
    11     7     8   ar
    12     7    28    1
    13     8     9    1
    14     9    10    1
    15    10    11    1
    16    10    29    1
    17    10    30    1
    18    11    12    1
    19    11    13    1
    20    11    31    1
    21    14    25    1
    22    14    15    1
    23    15    16    1
    24    15    32    1
    25    15    33    1
    26    16    17    1
    27    16    34    1
    28    16    35    1
    29    17    18    1
    30    17    24    1
    31    17    36    1
    32    18    23    1
    33    18    19    1
    34    19    20    2
    35    19    37    1
    36    20    21    1
    37    20    22    1
    38    22    23    2
    39    22    38    1
    40    24    25    1
    41    24    39    1
    42    24    40    1
    43    25    41    1
    44    25    42    1
@<TRIPOS>SUBSTRUCTURE
     1 ZINC000504860563        1 TEMP              0 ****  ****    0 ROOT


##########                                Name:    ZINC000655235556
##########                DOCK_Rotatable_Bonds:                   6
##########                         Heavy_Atoms:                  23
##########                    Molecular_Weight:             336.778
##########                DOCK_Rotatable_Bonds:                   6
##########                       Formal_Charge:         -0.00999996
##########                     HBond_Acceptors:                   8
##########                        HBond_Donors:                   2
##########                         Heavy_Atoms:                  23
##########                          Grid_Score:          -29.916668
##########                     Grid_vdw_energy:          -28.374203
##########                      Grid_es_energy:           -1.542465
##########           Internal_energy_repulsive:            9.838162

@<TRIPOS>MOLECULE
ZINC000655235556
 40 42 1 0 0
SMALL
USER_CHARGES


@<TRIPOS>ATOM
      1 C1         -7.3941    2.5251   53.0151 C.3     1  ZINC000655235556    0.0200
      2 O2         -6.2070    2.8298   53.7501 O.3     1  ZINC000655235556   -0.2700
      3 C3         -5.0433    2.8637   53.0539 C.ar    1  ZINC000655235556    0.2000
      4 C4         -5.0508    2.7029   51.6773 C.ar    1  ZINC000655235556   -0.2100
      5 C5         -3.8639    2.7382   50.9692 C.ar    1  ZINC000655235556    0.0300
      6 Cl6        -3.8809    2.5361   49.2451 Cl      1  ZINC000655235556   -0.0500
      7 C7         -2.6600    2.9347   51.6285 C.ar    1  ZINC000655235556   -0.1600
      8 C8         -2.6354    3.0962   52.9965 C.ar    1  ZINC000655235556   -0.0300
      9 C9         -3.8281    3.0675   53.7232 C.ar    1  ZINC000655235556   -0.1700
     10 C10        -3.8083    3.2402   55.1877 C.2     1  ZINC000655235556    0.5700
     11 O11        -4.5649    4.0316   55.7169 O.2     1  ZINC000655235556   -0.5100
     12 N12        -2.9516    2.5210   55.9396 N.am    1  ZINC000655235556   -0.7300
     13 C13        -2.9331    2.6913   57.3946 C.3     1  ZINC000655235556    0.2100
     14 C14        -1.5557    2.3780   57.9195 C.2     1  ZINC000655235556    0.2600
     15 N15        -1.2608    2.0372   59.1478 N.2     1  ZINC000655235556   -0.5100
     16 C16         0.0515    1.8345   59.2578 C.2     1  ZINC000655235556    0.2200
     17 C17         0.7722    1.4281   60.5174 C.3     1  ZINC000655235556    0.1700
     18 H18         1.0810    2.3157   61.0693 H       1  ZINC000655235556    0.1100
     19 C19         2.0093    0.5759   60.1613 C.3     1  ZINC000655235556   -0.1400
     20 C20         1.9986   -0.5034   61.2779 C.3     1  ZINC000655235556   -0.1500
     21 C21         0.4754   -0.6885   61.4935 C.3     1  ZINC000655235556    0.0500
     22 O22        -0.0892    0.6245   61.3322 O.3     1  ZINC000655235556   -0.3700
     23 N23         0.6123    2.0445   58.0959 N.2     1  ZINC000655235556   -0.2800
     24 N24        -0.4165    2.3945   57.2062 N.pl3   1  ZINC000655235556   -0.4700
     25 H25        -7.5407    3.2727   52.2356 H       1  ZINC000655235556    0.0600
     26 H26        -7.2964    1.5396   52.5596 H       1  ZINC000655235556    0.0600
     27 H27        -8.2504    2.5304   53.6895 H       1  ZINC000655235556    0.1100
     28 H28        -5.9848    2.5495   51.1572 H       1  ZINC000655235556    0.1500
     29 H29        -1.7377    2.9609   51.0673 H       1  ZINC000655235556    0.1400
     30 H30        -1.6954    3.2488   53.5060 H       1  ZINC000655235556    0.1400
     31 H31        -2.3473    1.8906   55.5173 H       1  ZINC000655235556    0.4000
     32 H32        -3.1912    3.7207   57.6432 H       1  ZINC000655235556    0.1000
     33 H33        -3.6575    2.0153   57.8488 H       1  ZINC000655235556    0.1100
     34 H34         1.8954    0.1185   59.1784 H       1  ZINC000655235556    0.0800
     35 H35         2.9191    1.1743   60.2088 H       1  ZINC000655235556    0.0900
     36 H36         2.4621   -1.4283   60.9346 H       1  ZINC000655235556    0.0900
     37 H37         2.4818   -0.1366   62.1834 H       1  ZINC000655235556    0.0800
     38 H38         0.0678   -1.3706   60.7472 H       1  ZINC000655235556    0.0600
     39 H39         0.2783   -1.0636   62.4977 H       1  ZINC000655235556    0.0900
     40 H40        -0.3227    2.6113   56.2654 H       1  ZINC000655235556    0.4400
@<TRIPOS>BOND
     1     1     2    1
     2     1    25    1
     3     1    26    1
     4     1    27    1
     5     2     3    1
     6     3     9   ar
     7     3     4   ar
     8     4     5   ar
     9     4    28    1
    10     5     6    1
    11     5     7   ar
    12     7     8   ar
    13     7    29    1
    14     8     9   ar
    15     8    30    1
    16     9    10    1
    17    10    11    2
    18    10    12   am
    19    12    13    1
    20    12    31    1
    21    13    14    1
    22    13    32    1
    23    13    33    1
    24    14    24    1
    25    14    15    2
    26    15    16    1
    27    16    17    1
    28    16    23    2
    29    17    18    1
    30    17    22    1
    31    17    19    1
    32    19    20    1
    33    19    34    1
    34    19    35    1
    35    20    21    1
    36    20    36    1
    37    20    37    1
    38    21    22    1
    39    21    38    1
    40    21    39    1
    41    23    24    1
    42    24    40    1
@<TRIPOS>SUBSTRUCTURE
     1 ZINC000655235556        1 TEMP              0 ****  ****    0 ROOT


##########                                Name:    ZINC000269287897
##########                DOCK_Rotatable_Bonds:                   8
##########                         Heavy_Atoms:                  23
##########                    Molecular_Weight:             385.301
##########                DOCK_Rotatable_Bonds:                   8
##########                       Formal_Charge:           0.0300002
##########                     HBond_Acceptors:                   5
##########                        HBond_Donors:                   1
##########                         Heavy_Atoms:                  23
##########                          Grid_Score:          -29.905081
##########                     Grid_vdw_energy:          -29.608711
##########                      Grid_es_energy:           -0.296369
##########           Internal_energy_repulsive:           11.287231

@<TRIPOS>MOLECULE
ZINC000269287897
 48 49 1 0 0
SMALL
USER_CHARGES


@<TRIPOS>ATOM
      1 C1         -0.4598    3.2703   50.5247 C.3     1  ZINC000269287897    0.0300
      2 O2         -1.4197    2.2596   50.8397 O.3     1  ZINC000269287897   -0.3800
      3 C3         -2.7350    2.7626   51.0820 C.3     1  ZINC000269287897    0.0600
      4 C4         -3.2652    3.4355   49.8143 C.3     1  ZINC000269287897    0.0600
      5 O5         -4.6249    3.8262   50.0153 O.3     1  ZINC000269287897   -0.3800
      6 C6         -5.5681    2.7708   49.8191 C.3     1  ZINC000269287897    0.0700
      7 C7         -6.4915    2.6792   51.0355 C.3     1  ZINC000269287897   -0.1000
      8 H8         -5.9619    2.9558   51.9471 H       1  ZINC000269287897    0.1000
      9 C9         -7.7573    3.5550   50.8401 C.3     1  ZINC000269287897   -0.1200
     10 C10        -8.8045    2.8523   51.7296 C.3     1  ZINC000269287897    0.1000
     11 N11        -8.3611    1.4623   51.9107 N.am    1  ZINC000269287897   -0.6300
     12 C12        -8.9953    0.5245   52.6421 C.2     1  ZINC000269287897    0.7300
     13 O13        -8.5346   -0.5979   52.7227 O.2     1  ZINC000269287897   -0.5600
     14 N14       -10.1399    0.8309   53.2842 N.am    1  ZINC000269287897   -0.6900
     15 C15       -10.7985   -0.1432   54.0439 C.ar    1  ZINC000269287897    0.1800
     16 C16       -11.5284   -1.1413   53.4132 C.ar    1  ZINC000269287897   -0.0600
     17 C17       -11.6129   -1.1779   51.9090 C.3     1  ZINC000269287897   -0.1000
     18 C18       -12.1769   -2.1016   54.1656 C.ar    1  ZINC000269287897   -0.0900
     19 C19       -12.0998   -2.0694   55.5457 C.ar    1  ZINC000269287897   -0.0800
     20 C20       -12.8086   -3.1185   56.3629 C.3     1  ZINC000269287897   -0.1100
     21 C21       -11.3732   -1.0768   56.1778 C.ar    1  ZINC000269287897   -0.0900
     22 C22       -10.7183   -0.1163   55.4311 C.ar    1  ZINC000269287897   -0.1000
     23 Br23       -9.7245    1.2403   56.2958 Br      1  ZINC000269287897   -0.0500
     24 C24        -7.1079    1.2634   51.1593 C.3     1  ZINC000269287897    0.1400
     25 H25        -0.7722    3.8003   49.6250 H       1  ZINC000269287897    0.0400
     26 H26        -0.3874    3.9738   51.3541 H       1  ZINC000269287897    0.0400
     27 H27         0.5124    2.8077   50.3547 H       1  ZINC000269287897    0.0900
     28 H28        -3.3936    1.9394   51.3589 H       1  ZINC000269287897    0.0600
     29 H29        -2.7022    3.4901   51.8929 H       1  ZINC000269287897    0.0600
     30 H30        -2.6631    4.3164   49.5916 H       1  ZINC000269287897    0.0700
     31 H31        -3.2077    2.7359   48.9804 H       1  ZINC000269287897    0.0600
     32 H32        -6.1611    2.9746   48.9274 H       1  ZINC000269287897    0.0600
     33 H33        -5.0368    1.8273   49.6943 H       1  ZINC000269287897    0.0500
     34 H34        -7.5787    4.5733   51.1857 H       1  ZINC000269287897    0.0900
     35 H35        -8.0722    3.5504   49.7966 H       1  ZINC000269287897    0.0800
     36 H36        -8.8642    3.3513   52.6969 H       1  ZINC000269287897    0.0700
     37 H37        -9.7783    2.8700   51.2403 H       1  ZINC000269287897    0.0700
     38 H38       -10.5074    1.7263   53.2199 H       1  ZINC000269287897    0.4100
     39 H39       -10.8836   -1.8892   51.5213 H       1  ZINC000269287897    0.0900
     40 H40       -12.6148   -1.4846   51.6088 H       1  ZINC000269287897    0.0600
     41 H41       -11.4013   -0.1862   51.5091 H       1  ZINC000269287897    0.0600
     42 H42       -12.7451   -2.8781   53.6752 H       1  ZINC000269287897    0.1300
     43 H43       -12.1405   -3.9640   56.5269 H       1  ZINC000269287897    0.0700
     44 H44       -13.1007   -2.6946   57.3237 H       1  ZINC000269287897    0.0700
     45 H45       -13.6971   -3.4557   55.8293 H       1  ZINC000269287897    0.0700
     46 H46       -11.3149   -1.0543   57.2560 H       1  ZINC000269287897    0.1400
     47 H47        -7.3188    0.8545   50.1712 H       1  ZINC000269287897    0.0700
     48 H48        -6.4369    0.6031   51.7086 H       1  ZINC000269287897    0.0900
@<TRIPOS>BOND
     1     1     2    1
     2     1    25    1
     3     1    26    1
     4     1    27    1
     5     2     3    1
     6     3     4    1
     7     3    28    1
     8     3    29    1
     9     4     5    1
    10     4    30    1
    11     4    31    1
    12     5     6    1
    13     6     7    1
    14     6    32    1
    15     6    33    1
    16     7     8    1
    17     7    24    1
    18     7     9    1
    19     9    10    1
    20     9    34    1
    21     9    35    1
    22    10    11    1
    23    10    36    1
    24    10    37    1
    25    11    12   am
    26    11    24    1
    27    12    13    2
    28    12    14   am
    29    14    15    1
    30    14    38    1
    31    15    22   ar
    32    15    16   ar
    33    16    17    1
    34    16    18   ar
    35    17    39    1
    36    17    40    1
    37    17    41    1
    38    18    19   ar
    39    18    42    1
    40    19    20    1
    41    19    21   ar
    42    20    43    1
    43    20    44    1
    44    20    45    1
    45    21    22   ar
    46    21    46    1
    47    22    23    1
    48    24    47    1
    49    24    48    1
@<TRIPOS>SUBSTRUCTURE
     1 ZINC000269287897        1 TEMP              0 ****  ****    0 ROOT


##########                                Name:    ZINC000609484313
##########                DOCK_Rotatable_Bonds:                  10
##########                         Heavy_Atoms:                  26
##########                    Molecular_Weight:             361.487
##########                DOCK_Rotatable_Bonds:                  10
##########                       Formal_Charge:          -0.0200004
##########                     HBond_Acceptors:                   7
##########                        HBond_Donors:                   1
##########                         Heavy_Atoms:                  26
##########                          Grid_Score:          -29.900904
##########                     Grid_vdw_energy:          -30.242142
##########                      Grid_es_energy:            0.341237
##########           Internal_energy_repulsive:           26.243933

@<TRIPOS>MOLECULE
ZINC000609484313
 57 58 1 0 0
SMALL
USER_CHARGES


@<TRIPOS>ATOM
      1 C1        -16.7210   -0.1635   51.6741 C.3     1  ZINC000609484313   -0.1500
      2 C2        -15.3627    0.4688   51.3644 C.3     1  ZINC000609484313   -0.1300
      3 C3        -14.2465   -0.4467   51.8712 C.3     1  ZINC000609484313   -0.1100
      4 C4        -12.9122    0.3003   51.8218 C.3     1  ZINC000609484313   -0.1100
      5 C5        -11.8162   -0.5717   52.4377 C.3     1  ZINC000609484313    0.0800
      6 H6        -11.8202   -1.5514   51.9602 H       1  ZINC000609484313    0.1200
      7 C7        -10.4756    0.0838   52.2283 C.2     1  ZINC000609484313    0.4900
      8 O8        -10.3839    1.2931   52.2365 O.2     1  ZINC000609484313   -0.5000
      9 N9         -9.3784   -0.6738   52.0318 N.am    1  ZINC000609484313   -0.6300
     10 C10        -8.1370   -0.0670   51.8397 C.2     1  ZINC000609484313    0.2400
     11 N11        -6.9787   -0.4973   52.2663 N.2     1  ZINC000609484313   -0.3900
     12 O12        -6.0829    0.2470   51.9413 O.3     1  ZINC000609484313    0.1000
     13 C13        -6.5378    1.2950   51.2394 C.2     1  ZINC000609484313   -0.0200
     14 C14        -5.7159    2.4228   50.6704 C.3     1  ZINC000609484313   -0.0800
     15 C15        -7.8773    1.1391   51.1361 C.2     1  ZINC000609484313   -0.2300
     16 N16       -12.0656   -0.7275   53.8770 N.3     1  ZINC000609484313   -0.5000
     17 C17       -11.5080    0.4022   54.6335 C.3     1  ZINC000609484313    0.0400
     18 C18       -11.8570    0.2426   56.1150 C.3     1  ZINC000609484313    0.0500
     19 N19       -11.3199   -1.0336   56.6074 N.3     1  ZINC000609484313   -0.5100
     20 C20       -11.5693   -1.1894   58.0468 C.3     1  ZINC000609484313    0.1800
     21 H21       -11.8641   -0.2294   58.4705 H       1  ZINC000609484313    0.1200
     22 C22       -12.6478   -2.1695   58.2546 C.1     1  ZINC000609484313    0.1700
     23 N23       -13.4801   -2.9258   58.4149 N.1     1  ZINC000609484313   -0.4200
     24 C24       -10.2942   -1.6807   58.7350 C.3     1  ZINC000609484313   -0.0800
     25 C25        -9.3252   -0.5096   58.9094 C.3     1  ZINC000609484313   -0.1400
     26 C26       -10.6459   -2.2602   60.1067 C.3     1  ZINC000609484313   -0.1500
     27 C27       -11.8776   -2.1633   55.8510 C.3     1  ZINC000609484313    0.0500
     28 C28       -11.5285   -2.0037   54.3694 C.3     1  ZINC000609484313    0.0400
     29 H29       -16.7924   -1.1318   51.1788 H       1  ZINC000609484313    0.0500
     30 H30       -16.8222   -0.2979   52.7510 H       1  ZINC000609484313    0.0500
     31 H31       -17.5162    0.4887   51.3130 H       1  ZINC000609484313    0.0500
     32 H32       -15.2615    0.6032   50.2874 H       1  ZINC000609484313    0.0600
     33 H33       -15.2912    1.4372   51.8597 H       1  ZINC000609484313    0.0600
     34 H34       -14.4586   -0.7441   52.8982 H       1  ZINC000609484313    0.0800
     35 H35       -14.1897   -1.3339   51.2404 H       1  ZINC000609484313    0.0600
     36 H36       -12.6591    0.5238   50.7854 H       1  ZINC000609484313    0.0700
     37 H37       -12.9954    1.2304   52.3840 H       1  ZINC000609484313    0.0800
     38 H38        -9.4518   -1.6409   52.0242 H       1  ZINC000609484313    0.4200
     39 H39        -4.6654    2.2662   50.9153 H       1  ZINC000609484313    0.0800
     40 H40        -5.8365    2.4497   49.5874 H       1  ZINC000609484313    0.0900
     41 H41        -6.0515    3.3681   51.0969 H       1  ZINC000609484313    0.0900
     42 H42        -8.5859    1.7856   50.6400 H       1  ZINC000609484313    0.1900
     43 H43       -10.4246    0.4198   54.5149 H       1  ZINC000609484313    0.0800
     44 H44       -11.9303    1.3347   54.2588 H       1  ZINC000609484313    0.0800
     45 H45       -11.4197    1.0643   56.6823 H       1  ZINC000609484313    0.0900
     46 H46       -12.9402    0.2524   56.2365 H       1  ZINC000609484313    0.0400
     47 H47        -9.8257   -2.4521   58.1239 H       1  ZINC000609484313    0.0800
     48 H48        -9.7938    0.2619   59.5205 H       1  ZINC000609484313    0.0600
     49 H49        -8.4168   -0.8596   59.3997 H       1  ZINC000609484313    0.0500
     50 H50        -9.0746   -0.0968   57.9322 H       1  ZINC000609484313    0.0700
     51 H51        -9.7300   -2.5244   60.6351 H       1  ZINC000609484313    0.0700
     52 H52       -11.1974   -1.5182   60.6841 H       1  ZINC000609484313    0.0600
     53 H53       -11.2609   -3.1508   59.9780 H       1  ZINC000609484313    0.0500
     54 H54       -11.4553   -3.0958   56.2257 H       1  ZINC000609484313    0.0900
     55 H55       -12.9610   -2.1809   55.9696 H       1  ZINC000609484313    0.0400
     56 H56       -11.9658   -2.8253   53.8022 H       1  ZINC000609484313    0.0800
     57 H57       -10.4454   -2.0134   54.2480 H       1  ZINC000609484313    0.0800
@<TRIPOS>BOND
     1     1     2    1
     2     1    29    1
     3     1    30    1
     4     1    31    1
     5     2     3    1
     6     2    32    1
     7     2    33    1
     8     3     4    1
     9     3    34    1
    10     3    35    1
    11     4     5    1
    12     4    36    1
    13     4    37    1
    14     5     6    1
    15     5     7    1
    16     5    16    1
    17     7     8    2
    18     7     9   am
    19     9    10    1
    20     9    38    1
    21    10    15    1
    22    10    11    2
    23    11    12    1
    24    12    13    1
    25    13    14    1
    26    13    15    2
    27    14    39    1
    28    14    40    1
    29    14    41    1
    30    15    42    1
    31    16    28    1
    32    16    17    1
    33    17    18    1
    34    17    43    1
    35    17    44    1
    36    18    19    1
    37    18    45    1
    38    18    46    1
    39    19    20    1
    40    19    27    1
    41    20    21    1
    42    20    22    1
    43    20    24    1
    44    22    23    3
    45    24    25    1
    46    24    26    1
    47    24    47    1
    48    25    48    1
    49    25    49    1
    50    25    50    1
    51    26    51    1
    52    26    52    1
    53    26    53    1
    54    27    28    1
    55    27    54    1
    56    27    55    1
    57    28    56    1
    58    28    57    1
@<TRIPOS>SUBSTRUCTURE
     1 ZINC000609484313        1 TEMP              0 ****  ****    0 ROOT


##########                                Name:    ZINC001070580102
##########                DOCK_Rotatable_Bonds:                   8
##########                         Heavy_Atoms:                  25
##########                    Molecular_Weight:              349.39
##########                DOCK_Rotatable_Bonds:                   8
##########                       Formal_Charge:          -0.0100003
##########                     HBond_Acceptors:                   9
##########                        HBond_Donors:                   3
##########                         Heavy_Atoms:                  25
##########                          Grid_Score:          -29.856293
##########                     Grid_vdw_energy:          -26.791912
##########                      Grid_es_energy:           -3.064382
##########           Internal_energy_repulsive:           13.656936

@<TRIPOS>MOLECULE
ZINC001070580102
 48 50 1 0 0
SMALL
USER_CHARGES


@<TRIPOS>ATOM
      1 C1         -1.7951    1.8805   65.3627 C.3     1  ZINC001070580102   -0.0800
      2 C2         -3.2117    2.3327   65.6073 C.2     1  ZINC001070580102   -0.0100
      3 C3         -4.3159    1.6714   65.2283 C.2     1  ZINC001070580102   -0.1900
      4 C4         -5.4515    2.4883   65.6807 C.2     1  ZINC001070580102   -0.2500
      5 C5         -6.8853    2.1945   65.5074 C.2     1  ZINC001070580102    0.6000
      6 O6         -7.7205    2.9668   65.9374 O.2     1  ZINC001070580102   -0.5300
      7 N7         -7.2708    1.0701   64.8721 N.am    1  ZINC001070580102   -0.7200
      8 C8         -8.6960    0.7773   64.7014 C.3     1  ZINC001070580102    0.2000
      9 C9         -8.9078    0.0561   63.3951 C.2     1  ZINC001070580102    0.2600
     10 N10        -9.9673    0.1430   62.6325 N.2     1  ZINC001070580102   -0.5100
     11 C11        -9.8145   -0.6283   61.5569 C.2     1  ZINC001070580102    0.2300
     12 C12       -10.8203   -0.7921   60.4468 C.3     1  ZINC001070580102    0.1400
     13 H13       -11.7237   -0.2322   60.6885 H       1  ZINC001070580102    0.0800
     14 C14       -11.1659   -2.2747   60.2845 C.3     1  ZINC001070580102    0.0800
     15 O15       -12.0626   -2.4322   59.1817 O.3     1  ZINC001070580102   -0.3800
     16 C16       -11.5392   -1.9510   57.9407 C.3     1  ZINC001070580102    0.0600
     17 C17       -11.1975   -0.4651   58.0792 C.3     1  ZINC001070580102    0.0200
     18 N18       -10.2507   -0.2858   59.1896 N.3     1  ZINC001070580102   -0.5200
     19 C19        -9.8528    1.1223   59.3199 C.3     1  ZINC001070580102    0.0600
     20 C20        -8.9993    1.5246   58.1155 C.3     1  ZINC001070580102    0.0800
     21 O21        -8.0392    0.5003   57.8487 O.3     1  ZINC001070580102   -0.5700
     22 N22        -8.6503   -1.2193   61.6203 N.2     1  ZINC001070580102   -0.2700
     23 N23        -8.0384   -0.7840   62.8073 N.pl3   1  ZINC001070580102   -0.4700
     24 C24        -4.9007    3.5746   66.2952 C.2     1  ZINC001070580102    0.0900
     25 C25        -5.6630    4.7094   66.9292 C.3     1  ZINC001070580102   -0.0900
     26 O26        -3.5702    3.4585   66.2440 O.3     1  ZINC001070580102   -0.1700
     27 H27        -1.1030    2.6101   65.7830 H       1  ZINC001070580102    0.0800
     28 H28        -1.6355    0.9126   65.8379 H       1  ZINC001070580102    0.0900
     29 H29        -1.6222    1.7915   64.2902 H       1  ZINC001070580102    0.0900
     30 H30        -4.3613    0.7311   64.6988 H       1  ZINC001070580102    0.1500
     31 H31        -6.6046    0.4547   64.5280 H       1  ZINC001070580102    0.4000
     32 H32        -9.0388    0.1486   65.5232 H       1  ZINC001070580102    0.1000
     33 H33        -9.2606    1.7097   64.6973 H       1  ZINC001070580102    0.1100
     34 H34       -10.2545   -2.8424   60.0965 H       1  ZINC001070580102    0.0700
     35 H35       -11.6412   -2.6394   61.1952 H       1  ZINC001070580102    0.1000
     36 H36       -10.6388   -2.5092   57.6846 H       1  ZINC001070580102    0.0600
     37 H37       -12.2846   -2.0815   57.1563 H       1  ZINC001070580102    0.1000
     38 H38       -10.7453   -0.1079   57.1540 H       1  ZINC001070580102    0.1200
     39 H39       -12.1071    0.1001   58.2825 H       1  ZINC001070580102    0.0400
     40 H40       -10.7434    1.7494   59.3597 H       1  ZINC001070580102    0.0500
     41 H41        -9.2749    1.2534   60.2348 H       1  ZINC001070580102    0.0800
     42 H42        -9.6404    1.6576   57.2440 H       1  ZINC001070580102    0.0500
     43 H43        -8.4825    2.4595   58.3324 H       1  ZINC001070580102    0.0600
     44 H44        -8.4287   -0.3451   57.5863 H       1  ZINC001070580102    0.3800
     45 H45        -7.1649   -1.0432   63.1399 H       1  ZINC001070580102    0.4400
     46 H46        -5.8519    4.4792   67.9777 H       1  ZINC001070580102    0.0900
     47 H47        -5.0763    5.6254   66.8585 H       1  ZINC001070580102    0.0800
     48 H48        -6.6118    4.8447   66.4101 H       1  ZINC001070580102    0.1100
@<TRIPOS>BOND
     1     1     2    1
     2     1    27    1
     3     1    28    1
     4     1    29    1
     5     2    26    1
     6     2     3    2
     7     3     4    1
     8     3    30    1
     9     4     5    1
    10     4    24    2
    11     5     6    2
    12     5     7   am
    13     7     8    1
    14     7    31    1
    15     8     9    1
    16     8    32    1
    17     8    33    1
    18     9    23    1
    19     9    10    2
    20    10    11    1
    21    11    12    1
    22    11    22    2
    23    12    13    1
    24    12    18    1
    25    12    14    1
    26    14    15    1
    27    14    34    1
    28    14    35    1
    29    15    16    1
    30    16    17    1
    31    16    36    1
    32    16    37    1
    33    17    18    1
    34    17    38    1
    35    17    39    1
    36    18    19    1
    37    19    20    1
    38    19    40    1
    39    19    41    1
    40    20    21    1
    41    20    42    1
    42    20    43    1
    43    21    44    1
    44    22    23    1
    45    23    45    1
    46    24    25    1
    47    24    26    1
    48    25    46    1
    49    25    47    1
    50    25    48    1
@<TRIPOS>SUBSTRUCTURE
     1 ZINC001070580102        1 TEMP              0 ****  ****    0 ROOT


##########                                Name:    ZINC000822206030
##########                DOCK_Rotatable_Bonds:                   7
##########                         Heavy_Atoms:                  29
##########                    Molecular_Weight:             391.448
##########                DOCK_Rotatable_Bonds:                   7
##########                       Formal_Charge:         -0.00999995
##########                     HBond_Acceptors:                   7
##########                        HBond_Donors:                   1
##########                         Heavy_Atoms:                  29
##########                          Grid_Score:          -29.848019
##########                     Grid_vdw_energy:          -29.730841
##########                      Grid_es_energy:           -0.117178
##########           Internal_energy_repulsive:           25.607716

@<TRIPOS>MOLECULE
ZINC000822206030
 51 55 1 0 0
SMALL
USER_CHARGES


@<TRIPOS>ATOM
      1 C1         -8.6066    0.2678   63.6110 C.3     1  ZINC000822206030   -0.1300
      2 C2        -10.0748    0.6021   63.5509 C.ar    1  ZINC000822206030   -0.0400
      3 C3        -10.7371    1.0128   64.6909 C.ar    1  ZINC000822206030   -0.1500
      4 C4        -12.0865    1.3196   64.6364 C.ar    1  ZINC000822206030    0.1100
      5 F5        -12.7328    1.7208   65.7528 F       1  ZINC000822206030   -0.1400
      6 C6        -12.7741    1.2161   63.4390 C.ar    1  ZINC000822206030   -0.1500
      7 C7        -12.1153    0.8055   62.2964 C.ar    1  ZINC000822206030   -0.0800
      8 C8        -10.7614    0.5026   62.3479 C.ar    1  ZINC000822206030    0.1100
      9 N9        -10.0915    0.0867   61.1907 N.am    1  ZINC000822206030   -0.5600
     10 C10        -9.8011   -1.3342   60.9831 C.3     1  ZINC000822206030    0.1500
     11 C11       -10.7664   -1.9020   59.9747 C.ar    1  ZINC000822206030   -0.0900
     12 C12       -10.2944   -2.4021   58.7746 C.ar    1  ZINC000822206030   -0.1000
     13 C13       -11.1740   -2.9236   57.8477 C.ar    1  ZINC000822206030   -0.0800
     14 C14       -12.5395   -2.9458   58.1225 C.ar    1  ZINC000822206030   -0.0100
     15 C15       -13.4903   -3.5060   57.1295 C.2     1  ZINC000822206030    0.2200
     16 N16       -13.1966   -3.9612   55.9280 N.2     1  ZINC000822206030   -0.2900
     17 N17       -14.2922   -4.3590   55.3782 N.pl3   1  ZINC000822206030   -0.2300
     18 N18       -15.2705   -4.1703   56.1932 N.2     1  ZINC000822206030   -0.0500
     19 N19       -14.8140   -3.6525   57.2828 N.2     1  ZINC000822206030   -0.2700
     20 C20       -13.0096   -2.4408   59.3327 C.ar    1  ZINC000822206030   -0.0800
     21 C21       -12.1207   -1.9262   60.2548 C.ar    1  ZINC000822206030   -0.0900
     22 C22        -9.7138    0.9936   60.2679 C.2     1  ZINC000822206030    0.5500
     23 O23        -9.9555    2.1697   60.4391 O.2     1  ZINC000822206030   -0.5000
     24 C24        -8.9912    0.5462   59.0235 C.3     1  ZINC000822206030   -0.1900
     25 H25        -8.4083   -0.3696   59.1219 H       1  ZINC000822206030    0.1200
     26 C26        -8.4485    1.6323   58.0927 C.3     1  ZINC000822206030   -0.1400
     27 C27        -9.6711    0.8097   57.6785 C.3     1  ZINC000822206030   -0.0900
     28 H28        -9.5353    0.0675   56.8918 H       1  ZINC000822206030    0.1100
     29 C29       -11.0324    1.5078   57.6991 C.3     1  ZINC000822206030   -0.1100
     30 C30       -11.7302    1.7352   56.3567 C.3     1  ZINC000822206030   -0.2000
     31 C31       -12.2594    0.6745   57.3241 C.3     1  ZINC000822206030   -0.1200
     32 H32        -8.0211    1.1656   63.4125 H       1  ZINC000822206030    0.0900
     33 H33        -8.3611   -0.1142   64.6019 H       1  ZINC000822206030    0.0700
     34 H34        -8.3754   -0.4896   62.8620 H       1  ZINC000822206030    0.0700
     35 H35       -10.2025    1.0946   65.6257 H       1  ZINC000822206030    0.1400
     36 H36       -13.8264    1.4561   63.3984 H       1  ZINC000822206030    0.1400
     37 H37       -12.6520    0.7245   61.3628 H       1  ZINC000822206030    0.1400
     38 H38        -8.7818   -1.4464   60.6135 H       1  ZINC000822206030    0.1000
     39 H39        -9.9062   -1.8682   61.9274 H       1  ZINC000822206030    0.0900
     40 H40        -9.2355   -2.3841   58.5623 H       1  ZINC000822206030    0.1300
     41 H41       -10.8045   -3.3136   56.9108 H       1  ZINC000822206030    0.1400
     42 H42       -14.3677   -4.7404   54.4895 H       1  ZINC000822206030    0.4800
     43 H43       -14.0673   -2.4552   59.5506 H       1  ZINC000822206030    0.1300
     44 H44       -12.4840   -1.5345   61.1934 H       1  ZINC000822206030    0.1400
     45 H45        -8.6141    2.6705   58.3804 H       1  ZINC000822206030    0.1000
     46 H46        -7.5087    1.4310   57.5784 H       1  ZINC000822206030    0.1000
     47 H47       -11.1578    2.2707   58.4675 H       1  ZINC000822206030    0.1000
     48 H48       -12.3149    2.6478   56.2415 H       1  ZINC000822206030    0.0900
     49 H49       -11.2196    1.3874   55.4587 H       1  ZINC000822206030    0.0900
     50 H50       -12.0969   -0.3711   57.0624 H       1  ZINC000822206030    0.0800
     51 H51       -13.1922    0.8894   57.8453 H       1  ZINC000822206030    0.0900
@<TRIPOS>BOND
     1     1     2    1
     2     1    32    1
     3     1    33    1
     4     1    34    1
     5     2     8   ar
     6     2     3   ar
     7     3     4   ar
     8     3    35    1
     9     4     5    1
    10     4     6   ar
    11     6     7   ar
    12     6    36    1
    13     7     8   ar
    14     7    37    1
    15     8     9    1
    16     9    10    1
    17     9    22   am
    18    10    11    1
    19    10    38    1
    20    10    39    1
    21    11    21   ar
    22    11    12   ar
    23    12    13   ar
    24    12    40    1
    25    13    14   ar
    26    13    41    1
    27    14    15    1
    28    14    20   ar
    29    15    19    1
    30    15    16    2
    31    16    17    1
    32    17    18    1
    33    17    42    1
    34    18    19    2
    35    20    21   ar
    36    20    43    1
    37    21    44    1
    38    22    23    2
    39    22    24    1
    40    24    25    1
    41    24    27    1
    42    24    26    1
    43    26    27    1
    44    26    45    1
    45    26    46    1
    46    27    28    1
    47    27    29    1
    48    29    31    1
    49    29    30    1
    50    29    47    1
    51    30    31    1
    52    30    48    1
    53    30    49    1
    54    31    50    1
    55    31    51    1
@<TRIPOS>SUBSTRUCTURE
     1 ZINC000822206030        1 TEMP              0 ****  ****    0 ROOT


##########                                Name:    ZINC000541568816
##########                DOCK_Rotatable_Bonds:                   8
##########                         Heavy_Atoms:                  25
##########                    Molecular_Weight:             411.339
##########                DOCK_Rotatable_Bonds:                   8
##########                       Formal_Charge:          -0.0100007
##########                     HBond_Acceptors:                   5
##########                        HBond_Donors:                   1
##########                         Heavy_Atoms:                  25
##########                          Grid_Score:          -29.846571
##########                     Grid_vdw_energy:          -29.003044
##########                      Grid_es_energy:           -0.843527
##########           Internal_energy_repulsive:           18.672709

@<TRIPOS>MOLECULE
ZINC000541568816
 52 54 1 0 0
SMALL
USER_CHARGES


@<TRIPOS>ATOM
      1 C1         -2.1673    1.7745   57.9176 C.3     1  ZINC000541568816   -0.1500
      2 C2         -2.5698    3.2414   57.7527 C.3     1  ZINC000541568816    0.0600
      3 O3         -3.9865    3.3310   57.5885 O.3     1  ZINC000541568816   -0.3700
      4 C4         -4.4143    3.3366   56.2251 C.3     1  ZINC000541568816    0.0700
      5 H5         -4.2802    2.3724   55.7350 H       1  ZINC000541568816    0.0900
      6 C6         -3.8682    4.5235   55.4118 C.3     1  ZINC000541568816   -0.1700
      7 C7         -5.2580    4.6167   54.7579 C.3     1  ZINC000541568816    0.1500
      8 H8         -5.6088    5.6396   54.6206 H       1  ZINC000541568816    0.1100
      9 N9         -5.3943    3.8009   53.5487 N.am    1  ZINC000541568816   -0.7200
     10 C10        -4.6763    4.1016   52.4484 C.2     1  ZINC000541568816    0.7100
     11 O11        -3.9144    5.0490   52.4600 O.2     1  ZINC000541568816   -0.5800
     12 N12        -4.8029    3.3521   51.3355 N.am    1  ZINC000541568816   -0.6300
     13 C13        -4.0238    3.6799   50.1390 C.3     1  ZINC000541568816    0.1000
     14 C14        -2.6769    2.9559   50.1932 C.3     1  ZINC000541568816   -0.1800
     15 C15        -5.7197    2.2094   51.3223 C.3     1  ZINC000541568816    0.1700
     16 C16        -7.1411    2.7066   51.2645 C.ar    1  ZINC000541568816   -0.0700
     17 C17        -7.4217    3.9325   50.6916 C.ar    1  ZINC000541568816   -0.1000
     18 C18        -8.7258    4.3887   50.6385 C.ar    1  ZINC000541568816   -0.1000
     19 C19        -9.7495    3.6187   51.1579 C.ar    1  ZINC000541568816   -0.1200
     20 C20        -9.4698    2.3923   51.7312 C.ar    1  ZINC000541568816   -0.0900
     21 C21        -8.1660    1.9333   51.7799 C.ar    1  ZINC000541568816   -0.0900
     22 Br22       -7.7826    0.2557   52.5640 Br      1  ZINC000541568816   -0.0500
     23 C23        -5.8071    3.9411   56.0208 C.3     1  ZINC000541568816    0.0800
     24 C24        -6.2507    4.9146   57.1266 C.3     1  ZINC000541568816   -0.1200
     25 C25        -7.7971    4.7613   57.0926 C.3     1  ZINC000541568816   -0.1600
     26 C26        -7.9381    3.2641   56.7170 C.3     1  ZINC000541568816    0.0500
     27 O27        -6.8582    3.0019   55.8039 O.3     1  ZINC000541568816   -0.3600
     28 H28        -2.6617    1.3585   58.7954 H       1  ZINC000541568816    0.0600
     29 H29        -2.4666    1.2138   57.0321 H       1  ZINC000541568816    0.0600
     30 H30        -1.0866    1.7061   58.0428 H       1  ZINC000541568816    0.0700
     31 H31        -2.2703    3.8020   58.6382 H       1  ZINC000541568816    0.0500
     32 H32        -2.0752    3.6574   56.8749 H       1  ZINC000541568816    0.0500
     33 H33        -3.6139    5.3903   56.0218 H       1  ZINC000541568816    0.1000
     34 H34        -3.0760    4.2478   54.7157 H       1  ZINC000541568816    0.0800
     35 H35        -6.0013    3.0444   53.5399 H       1  ZINC000541568816    0.4000
     36 H36        -4.5709    3.3633   49.2511 H       1  ZINC000541568816    0.0900
     37 H37        -3.8563    4.7562   50.0981 H       1  ZINC000541568816    0.0700
     38 H38        -2.8443    1.8797   50.2342 H       1  ZINC000541568816    0.0600
     39 H39        -2.0972    3.1999   49.3030 H       1  ZINC000541568816    0.0700
     40 H40        -2.1298    3.2725   51.0812 H       1  ZINC000541568816    0.0600
     41 H41        -5.5156    1.5899   50.4490 H       1  ZINC000541568816    0.1000
     42 H42        -5.5777    1.6192   52.2277 H       1  ZINC000541568816    0.1100
     43 H43        -6.6222    4.5344   50.2856 H       1  ZINC000541568816    0.1300
     44 H44        -8.9448    5.3471   50.1914 H       1  ZINC000541568816    0.1300
     45 H45       -10.7681    3.9755   51.1163 H       1  ZINC000541568816    0.1300
     46 H46       -10.2696    1.7909   52.1374 H       1  ZINC000541568816    0.1300
     47 H47        -5.8509    4.6123   58.0944 H       1  ZINC000541568816    0.1000
     48 H48        -5.9556    5.9361   56.8870 H       1  ZINC000541568816    0.0900
     49 H49        -8.2333    4.9635   58.0708 H       1  ZINC000541568816    0.0900
     50 H50        -8.2383    5.4010   56.3283 H       1  ZINC000541568816    0.0800
     51 H51        -7.8416    2.6405   57.6058 H       1  ZINC000541568816    0.0600
     52 H52        -8.8969    3.0848   56.2305 H       1  ZINC000541568816    0.0900
@<TRIPOS>BOND
     1     1     2    1
     2     1    28    1
     3     1    29    1
     4     1    30    1
     5     2     3    1
     6     2    31    1
     7     2    32    1
     8     3     4    1
     9     4     5    1
    10     4    23    1
    11     4     6    1
    12     6     7    1
    13     6    33    1
    14     6    34    1
    15     7     8    1
    16     7     9    1
    17     7    23    1
    18     9    10   am
    19     9    35    1
    20    10    11    2
    21    10    12   am
    22    12    13    1
    23    12    15    1
    24    13    14    1
    25    13    36    1
    26    13    37    1
    27    14    38    1
    28    14    39    1
    29    14    40    1
    30    15    16    1
    31    15    41    1
    32    15    42    1
    33    16    21   ar
    34    16    17   ar
    35    17    18   ar
    36    17    43    1
    37    18    19   ar
    38    18    44    1
    39    19    20   ar
    40    19    45    1
    41    20    21   ar
    42    20    46    1
    43    21    22    1
    44    23    27    1
    45    23    24    1
    46    24    25    1
    47    24    47    1
    48    24    48    1
    49    25    26    1
    50    25    49    1
    51    25    50    1
    52    26    27    1
    53    26    51    1
    54    26    52    1
@<TRIPOS>SUBSTRUCTURE
     1 ZINC000541568816        1 TEMP              0 ****  ****    0 ROOT


##########                                Name:    ZINC000301324012
##########                DOCK_Rotatable_Bonds:                   7
##########                         Heavy_Atoms:                  28
##########                    Molecular_Weight:               415.9
##########                DOCK_Rotatable_Bonds:                   7
##########                       Formal_Charge:          -0.0100002
##########                     HBond_Acceptors:                   8
##########                        HBond_Donors:                   2
##########                         Heavy_Atoms:                  28
##########                          Grid_Score:          -29.842133
##########                     Grid_vdw_energy:          -29.279966
##########                      Grid_es_energy:           -0.562167
##########           Internal_energy_repulsive:           10.188128

@<TRIPOS>MOLECULE
ZINC000301324012
 46 48 1 0 0
SMALL
USER_CHARGES


@<TRIPOS>ATOM
      1 C1         -5.2604    3.6845   54.7602 C.3     1  ZINC000301324012   -0.1600
      2 C2         -5.4292    3.8798   56.2683 C.3     1  ZINC000301324012    0.2000
      3 H3         -5.6405    4.9285   56.4774 H       1  ZINC000301324012    0.1100
      4 N4         -6.5401    3.0531   56.7465 N.am    1  ZINC000301324012   -0.7100
      5 C5         -7.6600    3.6362   57.2176 C.2     1  ZINC000301324012    0.5500
      6 O6         -7.7491    4.8482   57.2443 O.2     1  ZINC000301324012   -0.5300
      7 C7         -8.7804    2.8018   57.7018 C.ar    1  ZINC000301324012   -0.0700
      8 C8         -9.0524    1.5739   57.0967 C.ar    1  ZINC000301324012   -0.1100
      9 C9        -10.0989    0.7999   57.5536 C.ar    1  ZINC000301324012   -0.0200
     10 C10       -10.8784    1.2387   58.6091 C.ar    1  ZINC000301324012   -0.6600
     11 S11       -12.2135    0.2441   59.1864 S.o2    1  ZINC000301324012    2.6900
     12 O12       -12.9973    1.0758   60.0311 O.2     1  ZINC000301324012   -0.9400
     13 O13       -12.7395   -0.4220   58.0467 O.2     1  ZINC000301324012   -0.9400
     14 N14       -11.5658   -0.9306   60.1572 N.am    1  ZINC000301324012   -1.0500
     15 C15       -10.8471   -0.5737   61.3014 C.ar    1  ZINC000301324012    0.1600
     16 C16       -11.4816    0.0905   62.3426 C.ar    1  ZINC000301324012   -0.1600
     17 C17       -10.7684    0.4420   63.4724 C.ar    1  ZINC000301324012   -0.0800
     18 C18        -9.4240    0.1336   63.5674 C.ar    1  ZINC000301324012   -0.1200
     19 C19        -8.7881   -0.5281   62.5325 C.ar    1  ZINC000301324012   -0.0900
     20 C20        -9.4966   -0.8880   61.4023 C.ar    1  ZINC000301324012   -0.0600
     21 Cl21       -8.6981   -1.7185   60.1036 Cl      1  ZINC000301324012   -0.0600
     22 C22       -10.6138    2.4548   59.2138 C.ar    1  ZINC000301324012   -0.0200
     23 C23        -9.5670    3.2359   58.7699 C.ar    1  ZINC000301324012   -0.0800
     24 C24        -4.1606    3.4729   56.9726 C.ar    1  ZINC000301324012    0.1200
     25 C25        -3.5455    4.3579   57.8373 C.ar    1  ZINC000301324012   -0.1600
     26 C26        -2.3788    3.9735   58.4807 C.ar    1  ZINC000301324012   -0.0700
     27 C27        -1.8727    2.7077   58.2288 C.ar    1  ZINC000301324012   -0.1700
     28 C28        -2.5431    1.8768   57.3509 C.ar    1  ZINC000301324012    0.1100
     29 N29        -3.6533    2.2741   56.7606 N.ar    1  ZINC000301324012   -0.4900
     30 H30        -4.4340    4.2996   54.4044 H       1  ZINC000301324012    0.0700
     31 H31        -5.0492    2.6358   54.5511 H       1  ZINC000301324012    0.0600
     32 H32        -6.1780    3.9788   54.2508 H       1  ZINC000301324012    0.0700
     33 H33        -6.4694    2.0859   56.7242 H       1  ZINC000301324012    0.4100
     34 H34        -8.4451    1.2306   56.2721 H       1  ZINC000301324012    0.1400
     35 H35       -10.3105   -0.1505   57.0862 H       1  ZINC000301324012    0.1500
     36 H36       -11.6851   -1.8665   59.9316 H       1  ZINC000301324012    0.4300
     37 H37       -12.5315    0.3325   62.2692 H       1  ZINC000301324012    0.1700
     38 H38       -11.2616    0.9587   64.2824 H       1  ZINC000301324012    0.1400
     39 H39        -8.8690    0.4103   64.4516 H       1  ZINC000301324012    0.1400
     40 H40        -7.7378   -0.7674   62.6100 H       1  ZINC000301324012    0.1400
     41 H41       -11.2258    2.7913   60.0376 H       1  ZINC000301324012    0.1500
     42 H42        -9.3613    4.1848   59.2430 H       1  ZINC000301324012    0.1500
     43 H43        -3.9679    5.3369   58.0096 H       1  ZINC000301324012    0.1400
     44 H44        -1.8762    4.6445   59.1616 H       1  ZINC000301324012    0.1400
     45 H45        -0.9659    2.3752   58.7120 H       1  ZINC000301324012    0.1400
     46 H46        -2.1552    0.8893   57.1490 H       1  ZINC000301324012    0.1600
@<TRIPOS>BOND
     1     1     2    1
     2     1    30    1
     3     1    31    1
     4     1    32    1
     5     2     3    1
     6     2     4    1
     7     2    24    1
     8     4     5   am
     9     4    33    1
    10     5     6    2
    11     5     7    1
    12     7    23   ar
    13     7     8   ar
    14     8     9   ar
    15     8    34    1
    16     9    10   ar
    17     9    35    1
    18    10    11    1
    19    10    22   ar
    20    11    12    2
    21    11    13    2
    22    11    14   am
    23    14    15    1
    24    14    36    1
    25    15    20   ar
    26    15    16   ar
    27    16    17   ar
    28    16    37    1
    29    17    18   ar
    30    17    38    1
    31    18    19   ar
    32    18    39    1
    33    19    20   ar
    34    19    40    1
    35    20    21    1
    36    22    23   ar
    37    22    41    1
    38    23    42    1
    39    24    29   ar
    40    24    25   ar
    41    25    26   ar
    42    25    43    1
    43    26    27   ar
    44    26    44    1
    45    27    28   ar
    46    27    45    1
    47    28    29   ar
    48    28    46    1
@<TRIPOS>SUBSTRUCTURE
     1 ZINC000301324012        1 TEMP              0 ****  ****    0 ROOT


##########                                Name:    ZINC001456607258
##########                DOCK_Rotatable_Bonds:                   9
##########                         Heavy_Atoms:                  25
##########                    Molecular_Weight:             339.437
##########                DOCK_Rotatable_Bonds:                   9
##########                       Formal_Charge:          -0.0200009
##########                     HBond_Acceptors:                   5
##########                        HBond_Donors:                   2
##########                         Heavy_Atoms:                  25
##########                          Grid_Score:          -29.835865
##########                     Grid_vdw_energy:          -30.463890
##########                      Grid_es_energy:            0.628025
##########           Internal_energy_repulsive:           12.680186

@<TRIPOS>MOLECULE
ZINC001456607258
 50 52 1 0 0
SMALL
USER_CHARGES


@<TRIPOS>ATOM
      1 C1         -8.0543    3.8752   50.4413 C.3     1  ZINC001456607258   -0.1600
      2 C2         -6.5943    4.0503   50.8643 C.3     1  ZINC001456607258   -0.1100
      3 C3         -5.8483    2.7270   50.6817 C.3     1  ZINC001456607258   -0.1000
      4 H4         -6.4030    2.0891   49.9937 H       1  ZINC001456607258    0.0900
      5 C5         -5.7167    2.0248   52.0346 C.3     1  ZINC001456607258   -0.0700
      6 C6         -7.0324    1.3870   52.3995 C.ar    1  ZINC001456607258   -0.0800
      7 C7         -7.8332    1.9606   53.3694 C.ar    1  ZINC001456607258   -0.1200
      8 C8         -9.0401    1.3756   53.7041 C.ar    1  ZINC001456607258   -0.1200
      9 C9         -9.4463    0.2171   53.0687 C.ar    1  ZINC001456607258   -0.1200
     10 C10        -8.6460   -0.3561   52.0983 C.ar    1  ZINC001456607258   -0.1200
     11 C11        -7.4412    0.2314   51.7605 C.ar    1  ZINC001456607258   -0.1200
     12 C12        -4.4760    2.9974   50.1205 C.2     1  ZINC001456607258    0.5200
     13 O13        -4.1617    2.5422   49.0412 O.2     1  ZINC001456607258   -0.5300
     14 N14        -3.5980    3.7452   50.8180 N.am    1  ZINC001456607258   -0.7300
     15 C15        -2.2641    4.0080   50.2725 C.3     1  ZINC001456607258    0.1300
     16 C16        -1.2564    3.0446   50.9028 C.3     1  ZINC001456607258   -0.1400
     17 C17         0.1746    3.1999   50.3570 C.3     1  ZINC001456607258    0.1100
     18 N18         0.6171    3.0533   51.7573 N.am    1  ZINC001456607258   -0.6500
     19 C19         1.7566    2.6448   52.3499 C.2     1  ZINC001456607258    0.6100
     20 O20         1.8382    2.6260   53.5633 O.2     1  ZINC001456607258   -0.5400
     21 C21         2.9029    2.2212   51.5281 C.2     1  ZINC001456607258   -0.2300
     22 C22         3.9359    1.4118   51.9133 C.2     1  ZINC001456607258    0.0400
     23 N23         4.7755    1.2690   50.8703 N.pl3   1  ZINC001456607258   -0.5500
     24 C24         4.3175    1.9718   49.7941 C.2     1  ZINC001456607258   -0.0200
     25 C25         3.1641    2.5769   50.1292 C.2     1  ZINC001456607258   -0.1400
     26 C26        -0.6892    3.5336   52.2479 C.3     1  ZINC001456607258    0.1100
     27 H27        -8.6071    4.7897   50.6567 H       1  ZINC001456607258    0.0600
     28 H28        -8.1003    3.6661   49.3725 H       1  ZINC001456607258    0.0600
     29 H29        -8.4955    3.0454   50.9932 H       1  ZINC001456607258    0.0600
     30 H30        -6.1272    4.8188   50.2483 H       1  ZINC001456607258    0.0800
     31 H31        -6.5529    4.3492   51.9117 H       1  ZINC001456607258    0.0700
     32 H32        -4.9457    1.2569   51.9719 H       1  ZINC001456607258    0.0800
     33 H33        -5.4424    2.7537   52.7972 H       1  ZINC001456607258    0.0900
     34 H34        -7.5158    2.8658   53.8658 H       1  ZINC001456607258    0.1200
     35 H35        -9.6653    1.8235   54.4623 H       1  ZINC001456607258    0.1200
     36 H36       -10.3889   -0.2404   53.3308 H       1  ZINC001456607258    0.1200
     37 H37        -8.9633   -1.2614   51.6021 H       1  ZINC001456607258    0.1200
     38 H38        -6.8158   -0.2164   51.0023 H       1  ZINC001456607258    0.1200
     39 H39        -3.8495    4.1093   51.6812 H       1  ZINC001456607258    0.4000
     40 H40        -2.2783    3.8632   49.1922 H       1  ZINC001456607258    0.0700
     41 H41        -1.9752    5.0346   50.4977 H       1  ZINC001456607258    0.0800
     42 H42        -1.6103    2.0139   50.9245 H       1  ZINC001456607258    0.1100
     43 H43         0.4889    2.3816   49.7090 H       1  ZINC001456607258    0.0800
     44 H44         0.3786    4.1828   49.9323 H       1  ZINC001456607258    0.0900
     45 H45         4.0577    0.9636   52.8883 H       1  ZINC001456607258    0.1700
     46 H46         5.5899    0.7420   50.8823 H       1  ZINC001456607258    0.4200
     47 H47         4.7996    2.0287   48.8294 H       1  ZINC001456607258    0.1700
     48 H48         2.5553    3.2058   49.4966 H       1  ZINC001456607258    0.1500
     49 H49        -0.7390    4.6146   52.3787 H       1  ZINC001456607258    0.0900
     50 H50        -1.0647    2.9818   53.1097 H       1  ZINC001456607258    0.0900
@<TRIPOS>BOND
     1     1     2    1
     2     1    27    1
     3     1    28    1
     4     1    29    1
     5     2     3    1
     6     2    30    1
     7     2    31    1
     8     3     4    1
     9     3     5    1
    10     3    12    1
    11     5     6    1
    12     5    32    1
    13     5    33    1
    14     6    11   ar
    15     6     7   ar
    16     7     8   ar
    17     7    34    1
    18     8     9   ar
    19     8    35    1
    20     9    10   ar
    21     9    36    1
    22    10    11   ar
    23    10    37    1
    24    11    38    1
    25    12    13    2
    26    12    14   am
    27    14    15    1
    28    14    39    1
    29    15    16    1
    30    15    40    1
    31    15    41    1
    32    16    26    1
    33    16    17    1
    34    16    42    1
    35    17    18    1
    36    17    43    1
    37    17    44    1
    38    18    19   am
    39    18    26    1
    40    19    20    2
    41    19    21    1
    42    21    25    1
    43    21    22    2
    44    22    23    1
    45    22    45    1
    46    23    24    1
    47    23    46    1
    48    24    25    2
    49    24    47    1
    50    25    48    1
    51    26    49    1
    52    26    50    1
@<TRIPOS>SUBSTRUCTURE
     1 ZINC001456607258        1 TEMP              0 ****  ****    0 ROOT


##########                                Name:    ZINC001217683559
##########                DOCK_Rotatable_Bonds:                   3
##########                         Heavy_Atoms:                  25
##########                    Molecular_Weight:             397.234
##########                DOCK_Rotatable_Bonds:                   3
##########                       Formal_Charge:          0.00999987
##########                     HBond_Acceptors:                   7
##########                        HBond_Donors:                   0
##########                         Heavy_Atoms:                  25
##########                          Grid_Score:          -29.822754
##########                     Grid_vdw_energy:          -29.964087
##########                      Grid_es_energy:            0.141333
##########           Internal_energy_repulsive:           32.049511

@<TRIPOS>MOLECULE
ZINC001217683559
 38 42 1 0 0
SMALL
USER_CHARGES


@<TRIPOS>ATOM
      1 Br1        -2.9240    3.4482   53.7893 Br      1  ZINC001217683559    0.0100
      2 C2         -2.0147    3.8021   52.1694 C.ar    1  ZINC001217683559   -0.1200
      3 C3         -0.7575    4.3849   52.1819 C.ar    1  ZINC001217683559   -0.0500
      4 C4         -0.1281    4.6261   50.9698 C.ar    1  ZINC001217683559   -0.1500
      5 C5         -0.7677    4.2811   49.7928 C.ar    1  ZINC001217683559    0.1200
      6 N6         -1.9631    3.7287   49.8094 N.ar    1  ZINC001217683559   -0.4400
      7 C7         -2.5968    3.4754   50.9463 C.ar    1  ZINC001217683559    0.2200
      8 C8         -3.9437    2.8511   50.9154 C.2     1  ZINC001217683559    0.2100
      9 N9         -4.6076    2.4939   49.8463 N.2     1  ZINC001217683559   -0.3300
     10 O10        -5.6774    2.0133   50.1551 O.3     1  ZINC001217683559    0.1000
     11 C11        -5.8104    2.0143   51.4908 C.2     1  ZINC001217683559    0.2300
     12 C12        -6.9683    1.5145   52.2604 C.2     1  ZINC001217683559   -0.0600
     13 C13        -7.7594    0.5282   51.7429 C.2     1  ZINC001217683559    0.1800
     14 N14        -8.8241    0.0637   52.4427 N.pl3   1  ZINC001217683559   -0.2900
     15 N15        -9.7915   -0.9158   52.1755 N.2     1  ZINC001217683559   -0.3300
     16 C16       -10.5971   -0.9542   53.2104 C.2     1  ZINC001217683559    0.2800
     17 C17       -11.7861   -1.8693   53.3513 C.3     1  ZINC001217683559   -0.0300
     18 C18       -11.5671   -3.0138   54.3549 C.3     1  ZINC001217683559   -0.1200
     19 C19       -13.0164   -2.7829   54.8146 C.3     1  ZINC001217683559   -0.1400
     20 C20       -12.8621   -1.3374   54.3128 C.3     1  ZINC001217683559   -0.1200
     21 N21       -10.2053   -0.0664   54.1136 N.2     1  ZINC001217683559   -0.5300
     22 C22        -9.1262    0.5714   53.6756 C.2     1  ZINC001217683559    0.2900
     23 C23        -8.3266    1.5885   54.2324 C.2     1  ZINC001217683559   -0.1000
     24 C24        -7.2559    2.0526   53.5370 C.2     1  ZINC001217683559   -0.0200
     25 N25        -4.7060    2.5425   51.9851 N.2     1  ZINC001217683559   -0.4300
     26 H26        -0.2790    4.6455   53.1143 H       1  ZINC001217683559    0.1600
     27 H27         0.8519    5.0794   50.9451 H       1  ZINC001217683559    0.1500
     28 H28        -0.2802    4.4677   48.8473 H       1  ZINC001217683559    0.1800
     29 H29        -7.5356    0.1159   50.7701 H       1  ZINC001217683559    0.1900
     30 H30       -12.1830   -2.1986   52.3912 H       1  ZINC001217683559    0.1200
     31 H31       -11.4079   -3.9835   53.8832 H       1  ZINC001217683559    0.0700
     32 H32       -10.8250   -2.7873   55.1203 H       1  ZINC001217683559    0.1000
     33 H33       -13.7497   -3.3634   54.2548 H       1  ZINC001217683559    0.0800
     34 H34       -13.1495   -2.8586   55.8937 H       1  ZINC001217683559    0.0800
     35 H35       -12.4739   -0.6526   55.0668 H       1  ZINC001217683559    0.0900
     36 H36       -13.7483   -0.9537   53.8073 H       1  ZINC001217683559    0.0700
     37 H37        -8.5606    1.9935   55.2059 H       1  ZINC001217683559    0.1700
     38 H38        -6.6342    2.8323   53.9515 H       1  ZINC001217683559    0.1700
@<TRIPOS>BOND
     1     1     2    1
     2     2     7   ar
     3     2     3   ar
     4     3     4   ar
     5     3    26    1
     6     4     5   ar
     7     4    27    1
     8     5     6   ar
     9     5    28    1
    10     6     7   ar
    11     7     8    1
    12     8    25    1
    13     8     9    2
    14     9    10    1
    15    10    11    1
    16    11    12    1
    17    11    25    2
    18    12    24    1
    19    12    13    2
    20    13    14    1
    21    13    29    1
    22    14    22    1
    23    14    15    1
    24    15    16    2
    25    16    17    1
    26    16    21    1
    27    17    20    1
    28    17    18    1
    29    17    30    1
    30    18    19    1
    31    18    31    1
    32    18    32    1
    33    19    20    1
    34    19    33    1
    35    19    34    1
    36    20    35    1
    37    20    36    1
    38    21    22    2
    39    22    23    1
    40    23    24    2
    41    23    37    1
    42    24    38    1
@<TRIPOS>SUBSTRUCTURE
     1 ZINC001217683559        1 TEMP              0 ****  ****    0 ROOT


##########                                Name:    ZINC001079355651
##########                DOCK_Rotatable_Bonds:                   5
##########                         Heavy_Atoms:                  25
##########                    Molecular_Weight:             353.851
##########                DOCK_Rotatable_Bonds:                   5
##########                       Formal_Charge:           0.0199997
##########                     HBond_Acceptors:                   5
##########                        HBond_Donors:                   1
##########                         Heavy_Atoms:                  25
##########                          Grid_Score:          -29.796551
##########                     Grid_vdw_energy:          -30.228445
##########                      Grid_es_energy:            0.431894
##########           Internal_energy_repulsive:            4.888797

@<TRIPOS>MOLECULE
ZINC001079355651
 45 47 1 0 0
SMALL
USER_CHARGES


@<TRIPOS>ATOM
      1 C1          3.4389    1.5528   52.4195 C.3     1  ZINC001079355651   -0.1500
      2 C2          2.5162    1.2173   51.2460 C.3     1  ZINC001079355651   -0.1000
      3 H3          1.7117    0.5592   51.5739 H       1  ZINC001079355651    0.0900
      4 C4          3.3188    0.5556   50.1051 C.3     1  ZINC001079355651    0.0300
      5 N5          2.7119    1.0928   48.8601 N.3     1  ZINC001079355651   -0.5100
      6 C6          3.6384    0.9692   47.7269 C.3     1  ZINC001079355651    0.1600
      7 C7          2.8734    0.9254   46.4701 C.1     1  ZINC001079355651   -0.1400
      8 C8          2.2632    0.8904   45.4678 C.1     1  ZINC001079355651   -0.1300
      9 C9          1.5190    0.8478   44.2451 C.ar    1  ZINC001079355651    0.0300
     10 C10         0.2346    0.3031   44.2255 C.ar    1  ZINC001079355651   -0.0900
     11 C11        -0.4779    0.2646   43.0443 C.ar    1  ZINC001079355651   -0.1000
     12 C12         0.0781    0.7645   41.8808 C.ar    1  ZINC001079355651   -0.1000
     13 C13         1.3526    1.3061   41.8928 C.ar    1  ZINC001079355651   -0.0300
     14 Cl14        2.0425    1.9305   40.4273 Cl      1  ZINC001079355651   -0.0600
     15 C15         2.0732    1.3559   43.0695 C.ar    1  ZINC001079355651   -0.0900
     16 C16         2.4402    2.5195   49.1726 C.3     1  ZINC001079355651    0.0200
     17 C17         1.9361    2.5090   50.6342 C.3     1  ZINC001079355651    0.1500
     18 H18         2.3093    3.3821   51.1695 H       1  ZINC001079355651    0.1000
     19 N19         0.4717    2.4806   50.6673 N.am    1  ZINC001079355651   -0.7100
     20 C20        -0.1829    2.7973   51.8021 C.2     1  ZINC001079355651    0.5600
     21 O21         0.4415    3.1078   52.7972 O.2     1  ZINC001079355651   -0.5300
     22 C22        -1.6637    2.7669   51.8360 C.ar    1  ZINC001079355651   -0.0900
     23 C23        -2.4020    2.4413   50.6943 C.ar    1  ZINC001079355651   -0.1400
     24 C24        -3.7813    2.4249   50.7707 C.ar    1  ZINC001079355651    0.1000
     25 N25        -4.4001    2.7108   51.8990 N.ar    1  ZINC001079355651   -0.4700
     26 C26        -3.7424    3.0228   52.9978 C.ar    1  ZINC001079355651    0.1000
     27 C27        -2.3614    3.0574   53.0123 C.ar    1  ZINC001079355651   -0.1200
     28 H28         2.8688    2.0639   53.1953 H       1  ZINC001079355651    0.0600
     29 H29         3.8605    0.6330   52.8247 H       1  ZINC001079355651    0.0700
     30 H30         4.2447    2.2006   52.0744 H       1  ZINC001079355651    0.0600
     31 H31         4.3702    0.8365   50.1674 H       1  ZINC001079355651    0.0600
     32 H32         3.2110   -0.5284   50.1436 H       1  ZINC001079355651    0.0900
     33 H33         4.3115    1.8264   47.7129 H       1  ZINC001079355651    0.0700
     34 H34         4.2193    0.0528   47.8308 H       1  ZINC001079355651    0.1100
     35 H35        -0.2010   -0.0880   45.1330 H       1  ZINC001079355651    0.1300
     36 H36        -1.4720   -0.1572   43.0283 H       1  ZINC001079355651    0.1400
     37 H37        -0.4837    0.7319   40.9590 H       1  ZINC001079355651    0.1400
     38 H38         3.0670    1.7785   43.0782 H       1  ZINC001079355651    0.1400
     39 H39         3.3540    3.1077   49.0889 H       1  ZINC001079355651    0.0600
     40 H40         1.6708    2.9141   48.5089 H       1  ZINC001079355651    0.0900
     41 H41        -0.0267    2.2340   49.8725 H       1  ZINC001079355651    0.4000
     42 H42        -1.9017    2.2063   49.7665 H       1  ZINC001079355651    0.1400
     43 H43        -4.3605    2.1749   49.8941 H       1  ZINC001079355651    0.1600
     44 H44        -4.2905    3.2503   53.9002 H       1  ZINC001079355651    0.1700
     45 H45        -1.8291    3.3140   53.9164 H       1  ZINC001079355651    0.1500
@<TRIPOS>BOND
     1     1     2    1
     2     1    28    1
     3     1    29    1
     4     1    30    1
     5     2     3    1
     6     2    17    1
     7     2     4    1
     8     4     5    1
     9     4    31    1
    10     4    32    1
    11     5     6    1
    12     5    16    1
    13     6     7    1
    14     6    33    1
    15     6    34    1
    16     7     8    3
    17     8     9    1
    18     9    15   ar
    19     9    10   ar
    20    10    11   ar
    21    10    35    1
    22    11    12   ar
    23    11    36    1
    24    12    13   ar
    25    12    37    1
    26    13    14    1
    27    13    15   ar
    28    15    38    1
    29    16    17    1
    30    16    39    1
    31    16    40    1
    32    17    18    1
    33    17    19    1
    34    19    20   am
    35    19    41    1
    36    20    21    2
    37    20    22    1
    38    22    27   ar
    39    22    23   ar
    40    23    24   ar
    41    23    42    1
    42    24    25   ar
    43    24    43    1
    44    25    26   ar
    45    26    27   ar
    46    26    44    1
    47    27    45    1
@<TRIPOS>SUBSTRUCTURE
     1 ZINC001079355651        1 TEMP              0 ****  ****    0 ROOT


##########                                Name:    ZINC000171059239
##########                DOCK_Rotatable_Bonds:                   8
##########                         Heavy_Atoms:                  25
##########                    Molecular_Weight:              333.39
##########                DOCK_Rotatable_Bonds:                   8
##########                       Formal_Charge:         1.10269e-06
##########                     HBond_Acceptors:                   5
##########                        HBond_Donors:                   4
##########                         Heavy_Atoms:                  25
##########                          Grid_Score:          -29.795475
##########                     Grid_vdw_energy:          -28.476109
##########                      Grid_es_energy:           -1.319367
##########           Internal_energy_repulsive:           10.056079

@<TRIPOS>MOLECULE
ZINC000171059239
 44 46 1 0 0
SMALL
USER_CHARGES


@<TRIPOS>ATOM
      1 N1        -12.5147    2.1964   64.5111 N.am    1  ZINC000171059239   -0.8500
      2 C2        -12.3655    1.2938   63.5215 C.2     1  ZINC000171059239    0.5600
      3 O3        -13.3195    0.9785   62.8375 O.2     1  ZINC000171059239   -0.5400
      4 C4        -11.0413    0.6870   63.2679 C.ar    1  ZINC000171059239   -0.1400
      5 C5        -10.0157    0.8263   64.2041 C.ar    1  ZINC000171059239   -0.0900
      6 C6         -8.7824    0.2572   63.9615 C.ar    1  ZINC000171059239   -0.1200
      7 C7         -8.5612   -0.4497   62.7931 C.ar    1  ZINC000171059239   -0.0800
      8 C8         -9.5737   -0.5911   61.8605 C.ar    1  ZINC000171059239   -0.0900
      9 C9         -9.3236   -1.3626   60.5904 C.3     1  ZINC000171059239   -0.0900
     10 C10       -10.5490   -2.2186   60.2638 C.3     1  ZINC000171059239    0.1400
     11 N11       -11.3075   -1.5917   59.1785 N.am    1  ZINC000171059239   -0.7400
     12 C12       -11.1395   -2.0117   57.9089 C.2     1  ZINC000171059239    0.7000
     13 O13       -10.3596   -2.9119   57.6645 O.2     1  ZINC000171059239   -0.5700
     14 N14       -11.8361   -1.4338   56.9102 N.am    1  ZINC000171059239   -0.6800
     15 C15       -11.6621   -1.8690   55.5950 C.ar    1  ZINC000171059239    0.1700
     16 C16       -10.9243   -1.0894   54.6790 C.ar    1  ZINC000171059239   -0.0600
     17 C17       -10.3500    0.1333   55.0604 C.ar    1  ZINC000171059239   -0.1100
     18 C18        -9.6441    0.8593   54.1502 C.ar    1  ZINC000171059239   -0.1100
     19 C19        -9.4824    0.4067   52.8422 C.ar    1  ZINC000171059239   -0.1200
     20 C20       -10.0252   -0.7739   52.4373 C.ar    1  ZINC000171059239   -0.1000
     21 C21       -10.7602   -1.5508   53.3496 C.ar    1  ZINC000171059239   -0.0400
     22 C22       -11.3340   -2.7749   52.9666 C.ar    1  ZINC000171059239   -0.1200
     23 C23       -12.0407   -3.5070   53.8714 C.ar    1  ZINC000171059239   -0.0900
     24 C24       -12.2046   -3.0664   55.1812 C.ar    1  ZINC000171059239   -0.1200
     25 C25       -10.8132   -0.0325   62.0936 C.ar    1  ZINC000171059239   -0.0500
     26 H26       -13.3838    2.5936   64.6783 H       1  ZINC000171059239    0.4100
     27 H27       -11.7540    2.4460   65.0587 H       1  ZINC000171059239    0.4000
     28 H28       -10.1870    1.3786   65.1162 H       1  ZINC000171059239    0.1300
     29 H29        -7.9879    0.3642   64.6852 H       1  ZINC000171059239    0.1300
     30 H30        -7.5940   -0.8930   62.6079 H       1  ZINC000171059239    0.1300
     31 H31        -9.1386   -0.6660   59.7726 H       1  ZINC000171059239    0.0800
     32 H32        -8.4546   -2.0073   60.7220 H       1  ZINC000171059239    0.0800
     33 H33       -10.2258   -3.2125   59.9543 H       1  ZINC000171059239    0.0700
     34 H34       -11.1807   -2.3009   61.1483 H       1  ZINC000171059239    0.0700
     35 H35       -11.9306   -0.8743   59.3736 H       1  ZINC000171059239    0.4000
     36 H36       -12.4583   -0.7157   57.1052 H       1  ZINC000171059239    0.4100
     37 H37       -10.4678    0.4966   56.0706 H       1  ZINC000171059239    0.1200
     38 H38        -9.2032    1.7997   54.4463 H       1  ZINC000171059239    0.1200
     39 H39        -8.9185    1.0018   52.1392 H       1  ZINC000171059239    0.1200
     40 H40        -9.8921   -1.1120   51.4202 H       1  ZINC000171059239    0.1300
     41 H41       -11.2150   -3.1346   51.9553 H       1  ZINC000171059239    0.1300
     42 H42       -12.4784   -4.4467   53.5684 H       1  ZINC000171059239    0.1300
     43 H43       -12.7695   -3.6661   55.8795 H       1  ZINC000171059239    0.1400
     44 H44       -11.6026   -0.1438   61.3651 H       1  ZINC000171059239    0.1400
@<TRIPOS>BOND
     1     1     2   am
     2     1    26    1
     3     1    27    1
     4     2     3    2
     5     2     4    1
     6     4    25   ar
     7     4     5   ar
     8     5     6   ar
     9     5    28    1
    10     6     7   ar
    11     6    29    1
    12     7     8   ar
    13     7    30    1
    14     8     9    1
    15     8    25   ar
    16     9    10    1
    17     9    31    1
    18     9    32    1
    19    10    11    1
    20    10    33    1
    21    10    34    1
    22    11    12   am
    23    11    35    1
    24    12    13    2
    25    12    14   am
    26    14    15    1
    27    14    36    1
    28    15    24   ar
    29    15    16   ar
    30    16    21   ar
    31    16    17   ar
    32    17    18   ar
    33    17    37    1
    34    18    19   ar
    35    18    38    1
    36    19    20   ar
    37    19    39    1
    38    20    21   ar
    39    20    40    1
    40    21    22   ar
    41    22    23   ar
    42    22    41    1
    43    23    24   ar
    44    23    42    1
    45    24    43    1
    46    25    44    1
@<TRIPOS>SUBSTRUCTURE
     1 ZINC000171059239        1 TEMP              0 ****  ****    0 ROOT


##########                                Name:    ZINC000191003171
##########                DOCK_Rotatable_Bonds:                   6
##########                         Heavy_Atoms:                  26
##########                    Molecular_Weight:             389.414
##########                DOCK_Rotatable_Bonds:                   6
##########                       Formal_Charge:          -0.0200002
##########                     HBond_Acceptors:                   8
##########                        HBond_Donors:                   1
##########                         Heavy_Atoms:                  26
##########                          Grid_Score:          -29.785664
##########                     Grid_vdw_energy:          -28.843367
##########                      Grid_es_energy:           -0.942296
##########           Internal_energy_repulsive:           17.641237

@<TRIPOS>MOLECULE
ZINC000191003171
 45 46 1 0 0
SMALL
USER_CHARGES


@<TRIPOS>ATOM
      1 C1        -12.9853   -2.2182   56.2710 C.3     1  ZINC000191003171   -0.1200
      2 C2        -13.3128   -2.2828   57.7406 C.ar    1  ZINC000191003171   -0.0800
      3 C3        -14.6228   -2.4457   58.1501 C.ar    1  ZINC000191003171   -0.0700
      4 C4        -14.9232   -2.5050   59.4984 C.ar    1  ZINC000191003171   -0.1800
      5 C5        -16.3516   -2.6822   59.9450 C.3     1  ZINC000191003171    0.5100
      6 F6        -16.5354   -2.0526   61.1807 F       1  ZINC000191003171   -0.1800
      7 F7        -17.2101   -2.1122   58.9988 F       1  ZINC000191003171   -0.1800
      8 F8        -16.6353   -4.0465   60.0700 F       1  ZINC000191003171   -0.1800
      9 C9        -13.9136   -2.4022   60.4366 C.ar    1  ZINC000191003171   -0.0800
     10 C10       -12.6031   -2.2397   60.0269 C.ar    1  ZINC000191003171   -0.1000
     11 C11       -12.3022   -2.1847   58.6790 C.ar    1  ZINC000191003171   -0.0500
     12 C12       -10.8739   -2.0075   58.2325 C.3     1  ZINC000191003171    0.0900
     13 N13       -10.0346   -1.6826   59.3934 N.3     1  ZINC000191003171   -0.6800
     14 C14        -9.9791   -0.2312   59.6132 C.3     1  ZINC000191003171    0.1200
     15 H15       -10.9303    0.2165   59.3256 H       1  ZINC000191003171    0.0600
     16 C16        -8.8557    0.3703   58.7663 C.3     1  ZINC000191003171   -0.1400
     17 C17        -9.7135    0.0465   61.0703 C.ar    1  ZINC000191003171   -0.0100
     18 C18        -8.8997   -0.8014   61.7980 C.ar    1  ZINC000191003171   -0.1300
     19 C19        -8.6551   -0.5479   63.1350 C.ar    1  ZINC000191003171    0.0100
     20 C20        -9.2241    0.5535   63.7454 C.ar    1  ZINC000191003171   -0.7000
     21 S21        -8.9120    0.8762   65.4493 S.o2    1  ZINC000191003171    2.5000
     22 C22        -7.8106    2.3175   65.4427 C.3     1  ZINC000191003171   -0.6500
     23 O23       -10.1842    1.2231   65.9789 O.2     1  ZINC000191003171   -0.9300
     24 O24        -8.2196   -0.2785   65.9035 O.2     1  ZINC000191003171   -0.9300
     25 C25       -10.0391    1.4039   63.0172 C.ar    1  ZINC000191003171    0.1900
     26 F26       -10.5959    2.4811   63.6129 F       1  ZINC000191003171   -0.1200
     27 C27       -10.2791    1.1520   61.6773 C.ar    1  ZINC000191003171   -0.1700
     28 H28       -12.7897   -3.2234   55.8978 H       1  ZINC000191003171    0.0800
     29 H29       -13.8275   -1.7872   55.7296 H       1  ZINC000191003171    0.0800
     30 H30       -12.1018   -1.5972   56.1226 H       1  ZINC000191003171    0.0600
     31 H31       -15.4117   -2.5264   57.4170 H       1  ZINC000191003171    0.1400
     32 H32       -14.1482   -2.4484   61.4897 H       1  ZINC000191003171    0.1400
     33 H33       -11.8142   -2.1590   60.7600 H       1  ZINC000191003171    0.1400
     34 H34       -10.5191   -2.9309   57.7747 H       1  ZINC000191003171    0.0900
     35 H35       -10.8183   -1.1971   57.5057 H       1  ZINC000191003171    0.0500
     36 H36       -10.3597   -2.1613   60.2200 H       1  ZINC000191003171    0.3500
     37 H37        -8.8145    1.4473   58.9294 H       1  ZINC000191003171    0.0600
     38 H38        -7.9044   -0.0774   59.0540 H       1  ZINC000191003171    0.0700
     39 H39        -9.0479    0.1695   57.7124 H       1  ZINC000191003171    0.0600
     40 H40        -8.4549   -1.6627   61.3219 H       1  ZINC000191003171    0.1500
     41 H41        -8.0193   -1.2112   63.7027 H       1  ZINC000191003171    0.1600
     42 H42        -8.3104    3.1544   64.9549 H       1  ZINC000191003171    0.1300
     43 H43        -7.5629    2.5902   66.4686 H       1  ZINC000191003171    0.1400
     44 H44        -6.8968    2.0740   64.9007 H       1  ZINC000191003171    0.1300
     45 H45       -10.9142    1.8148   61.1083 H       1  ZINC000191003171    0.1500
@<TRIPOS>BOND
     1     1     2    1
     2     1    28    1
     3     1    29    1
     4     1    30    1
     5     2    11   ar
     6     2     3   ar
     7     3     4   ar
     8     3    31    1
     9     4     5    1
    10     4     9   ar
    11     5     6    1
    12     5     7    1
    13     5     8    1
    14     9    10   ar
    15     9    32    1
    16    10    11   ar
    17    10    33    1
    18    11    12    1
    19    12    13    1
    20    12    34    1
    21    12    35    1
    22    13    14    1
    23    13    36    1
    24    14    15    1
    25    14    16    1
    26    14    17    1
    27    16    37    1
    28    16    38    1
    29    16    39    1
    30    17    27   ar
    31    17    18   ar
    32    18    19   ar
    33    18    40    1
    34    19    20   ar
    35    19    41    1
    36    20    21    1
    37    20    25   ar
    38    21    22    1
    39    21    23    2
    40    21    24    2
    41    22    42    1
    42    22    43    1
    43    22    44    1
    44    25    26    1
    45    25    27   ar
    46    27    45    1
@<TRIPOS>SUBSTRUCTURE
     1 ZINC000191003171        1 TEMP              0 ****  ****    0 ROOT


##########                                Name:    ZINC000062882109
##########                DOCK_Rotatable_Bonds:                   8
##########                         Heavy_Atoms:                  31
##########                    Molecular_Weight:             424.497
##########                DOCK_Rotatable_Bonds:                   8
##########                       Formal_Charge:           0.0299993
##########                     HBond_Acceptors:                   7
##########                        HBond_Donors:                   1
##########                         Heavy_Atoms:                  31
##########                          Grid_Score:          -29.770164
##########                     Grid_vdw_energy:          -29.623133
##########                      Grid_es_energy:           -0.147032
##########           Internal_energy_repulsive:          193.601471

@<TRIPOS>MOLECULE
ZINC000062882109
 59 61 1 0 0
SMALL
USER_CHARGES


@<TRIPOS>ATOM
      1 C1         -2.7602    3.6031   51.0368 C.3     1  ZINC000062882109   -0.2000
      2 C2         -3.9489    4.0531   51.8463 C.2     1  ZINC000062882109    0.3900
      3 O3         -3.8142    4.9034   52.7001 O.2     1  ZINC000062882109   -0.4500
      4 C4         -5.2736    3.4604   51.6005 C.ar    1  ZINC000062882109   -0.1300
      5 C5         -5.4344    2.4873   50.6092 C.ar    1  ZINC000062882109   -0.1100
      6 C6         -6.6778    1.9348   50.3824 C.ar    1  ZINC000062882109   -0.0900
      7 C7         -7.7670    2.3396   51.1322 C.ar    1  ZINC000062882109   -0.1800
      8 C8         -7.6182    3.3056   52.1190 C.ar    1  ZINC000062882109    0.1200
      9 O9         -8.6932    3.6986   52.8520 O.3     1  ZINC000062882109   -0.2800
     10 C10        -9.9637    3.1603   52.4803 C.3     1  ZINC000062882109    0.0700
     11 H11       -10.0183    3.0738   51.3951 H       1  ZINC000062882109    0.1000
     12 C12       -11.0751    4.0883   52.9745 C.3     1  ZINC000062882109   -0.1800
     13 C13       -10.1333    1.7980   53.1021 C.2     1  ZINC000062882109    0.5200
     14 O14        -9.1829    1.0499   53.1923 O.2     1  ZINC000062882109   -0.4900
     15 N15       -11.3412    1.4109   53.5578 N.am    1  ZINC000062882109   -0.6600
     16 C16       -11.4989    0.1445   54.1359 C.ar    1  ZINC000062882109    0.1400
     17 C17       -11.8809   -0.9350   53.3510 C.ar    1  ZINC000062882109   -0.1000
     18 C18       -12.0392   -2.1853   53.9177 C.ar    1  ZINC000062882109   -0.1100
     19 C19       -11.8173   -2.3682   55.2743 C.ar    1  ZINC000062882109    0.0800
     20 O20       -11.9849   -3.6018   55.8217 O.3     1  ZINC000062882109   -0.3100
     21 C21       -11.3477   -3.8669   57.0736 C.3     1  ZINC000062882109    0.0500
     22 C22       -11.6736   -2.7247   58.0465 C.3     1  ZINC000062882109    0.0400
     23 N23       -11.2003   -1.4709   57.4355 N.am    1  ZINC000062882109   -0.5500
     24 C24       -10.5678   -0.5333   58.1686 C.2     1  ZINC000062882109    0.5300
     25 O25       -10.1868    0.4917   57.6438 O.2     1  ZINC000062882109   -0.5100
     26 C26       -10.3340   -0.7586   59.6402 C.3     1  ZINC000062882109   -0.0800
     27 C27        -9.7589    0.5138   60.2658 C.3     1  ZINC000062882109   -0.1300
     28 C28       -11.6598   -1.1067   60.3198 C.3     1  ZINC000062882109   -0.1600
     29 C29        -9.3459   -1.9114   59.8291 C.3     1  ZINC000062882109   -0.1500
     30 C30       -11.4306   -1.2862   56.0613 C.ar    1  ZINC000062882109    0.1000
     31 C31       -11.2680   -0.0338   55.4935 C.ar    1  ZINC000062882109   -0.1400
     32 C32        -6.3752    3.8636   52.3610 C.ar    1  ZINC000062882109   -0.0900
     33 H33        -1.8737    4.1496   51.3585 H       1  ZINC000062882109    0.0900
     34 H34        -2.6024    2.5349   51.1857 H       1  ZINC000062882109    0.1000
     35 H35        -2.9446    3.7994   49.9806 H       1  ZINC000062882109    0.1000
     36 H36        -4.5862    2.1691   50.0214 H       1  ZINC000062882109    0.1400
     37 H37        -6.8012    1.1837   49.6163 H       1  ZINC000062882109    0.1300
     38 H38        -8.7377    1.9028   50.9494 H       1  ZINC000062882109    0.1300
     39 H39       -10.9524    5.0737   52.5248 H       1  ZINC000062882109    0.0800
     40 H40       -12.0443    3.6777   52.6910 H       1  ZINC000062882109    0.0800
     41 H41       -11.0206    4.1749   54.0597 H       1  ZINC000062882109    0.0800
     42 H42       -12.1012    2.0092   53.4857 H       1  ZINC000062882109    0.4100
     43 H43       -12.0550   -0.7972   52.2941 H       1  ZINC000062882109    0.1400
     44 H44       -12.3368   -3.0218   53.3028 H       1  ZINC000062882109    0.1400
     45 H45       -11.7169   -4.8088   57.4792 H       1  ZINC000062882109    0.1300
     46 H46       -10.2690   -3.9270   56.9290 H       1  ZINC000062882109    0.0700
     47 H47       -12.7502   -2.6735   58.2094 H       1  ZINC000062882109    0.0900
     48 H48       -11.1627   -2.8898   58.9952 H       1  ZINC000062882109    0.1300
     49 H49       -10.4628    1.3350   60.1313 H       1  ZINC000062882109    0.0600
     50 H50        -9.5898    0.3508   61.3303 H       1  ZINC000062882109    0.0700
     51 H51        -8.8143    0.7617   59.7817 H       1  ZINC000062882109    0.0700
     52 H52       -12.0696   -2.0131   59.8742 H       1  ZINC000062882109    0.0700
     53 H53       -11.4908   -1.2696   61.3842 H       1  ZINC000062882109    0.0800
     54 H54       -12.3637   -0.2855   60.1853 H       1  ZINC000062882109    0.0600
     55 H55        -8.3501   -1.5901   59.5239 H       1  ZINC000062882109    0.0700
     56 H56        -9.3271   -2.2055   60.8784 H       1  ZINC000062882109    0.0800
     57 H57        -9.6568   -2.7598   59.2195 H       1  ZINC000062882109    0.0700
     58 H58       -10.9666    0.8033   56.1059 H       1  ZINC000062882109    0.1800
     59 H59        -6.2584    4.6145   53.1283 H       1  ZINC000062882109    0.1400
@<TRIPOS>BOND
     1     1     2    1
     2     1    33    1
     3     1    34    1
     4     1    35    1
     5     2     3    2
     6     2     4    1
     7     4    32   ar
     8     4     5   ar
     9     5     6   ar
    10     5    36    1
    11     6     7   ar
    12     6    37    1
    13     7     8   ar
    14     7    38    1
    15     8     9    1
    16     8    32   ar
    17     9    10    1
    18    10    11    1
    19    10    12    1
    20    10    13    1
    21    12    39    1
    22    12    40    1
    23    12    41    1
    24    13    14    2
    25    13    15   am
    26    15    16    1
    27    15    42    1
    28    16    31   ar
    29    16    17   ar
    30    17    18   ar
    31    17    43    1
    32    18    19   ar
    33    18    44    1
    34    19    30   ar
    35    19    20    1
    36    20    21    1
    37    21    22    1
    38    21    45    1
    39    21    46    1
    40    22    23    1
    41    22    47    1
    42    22    48    1
    43    23    24   am
    44    23    30    1
    45    24    25    2
    46    24    26    1
    47    26    27    1
    48    26    28    1
    49    26    29    1
    50    27    49    1
    51    27    50    1
    52    27    51    1
    53    28    52    1
    54    28    53    1
    55    28    54    1
    56    29    55    1
    57    29    56    1
    58    29    57    1
    59    30    31   ar
    60    31    58    1
    61    32    59    1
@<TRIPOS>SUBSTRUCTURE
     1 ZINC000062882109        1 TEMP              0 ****  ****    0 ROOT


##########                                Name:    ZINC000501032137
##########                DOCK_Rotatable_Bonds:                  10
##########                         Heavy_Atoms:                  25
##########                    Molecular_Weight:             407.307
##########                DOCK_Rotatable_Bonds:                  10
##########                       Formal_Charge:           0.0099998
##########                     HBond_Acceptors:                   5
##########                        HBond_Donors:                   1
##########                         Heavy_Atoms:                  25
##########                          Grid_Score:          -29.768095
##########                     Grid_vdw_energy:          -28.029823
##########                      Grid_es_energy:           -1.738272
##########           Internal_energy_repulsive:           11.566847

@<TRIPOS>MOLECULE
ZINC000501032137
 48 50 1 0 0
SMALL
USER_CHARGES


@<TRIPOS>ATOM
      1 C1         -8.2042    0.3628   65.9120 C.3     1  ZINC000501032137   -0.1500
      2 C2         -8.5888   -0.1255   64.5139 C.3     1  ZINC000501032137   -0.1200
      3 C3         -9.8237    0.6368   64.0292 C.3     1  ZINC000501032137    0.0600
      4 O4        -10.2762    0.0753   62.7956 O.3     1  ZINC000501032137   -0.3800
      5 C5         -9.2957    0.0899   61.7561 C.3     1  ZINC000501032137    0.0500
      6 C6         -9.9788   -0.1453   60.4073 C.3     1  ZINC000501032137    0.1600
      7 H7        -10.9864    0.2698   60.4331 H       1  ZINC000501032137    0.1000
      8 C8        -10.0532   -1.6478   60.1284 C.3     1  ZINC000501032137   -0.0900
      9 C9        -11.4483   -2.0083   59.6871 C.ar    1  ZINC000501032137   -0.0600
     10 C10       -12.5165   -1.8085   60.5413 C.ar    1  ZINC000501032137   -0.0900
     11 C11       -13.7967   -2.1392   60.1369 C.ar    1  ZINC000501032137   -0.1100
     12 C12       -14.0088   -2.6695   58.8786 C.ar    1  ZINC000501032137   -0.0900
     13 C13       -12.9399   -2.8697   58.0234 C.ar    1  ZINC000501032137   -0.0800
     14 Br14      -13.2295   -3.5955   56.3013 Br      1  ZINC000501032137   -0.0600
     15 C15       -11.6602   -2.5335   58.4261 C.ar    1  ZINC000501032137   -0.0800
     16 N16        -9.2075    0.5104   59.3484 N.am    1  ZINC000501032137   -0.7100
     17 C17        -9.8032    0.8367   58.1843 C.2     1  ZINC000501032137    0.6100
     18 O18       -10.9813    0.5882   58.0135 O.2     1  ZINC000501032137   -0.5200
     19 C19        -9.0266    1.4949   57.1181 C.2     1  ZINC000501032137   -0.0800
     20 C20        -9.5310    2.1431   56.0330 C.2     1  ZINC000501032137    0.0800
     21 C21       -10.9881    2.3238   55.6933 C.3     1  ZINC000501032137   -0.0800
     22 C22       -11.3416    2.6244   54.2354 C.3     1  ZINC000501032137   -0.1700
     23 C23       -11.6508    1.2488   54.8295 C.3     1  ZINC000501032137   -0.1500
     24 O24        -8.4835    2.5913   55.3228 O.3     1  ZINC000501032137   -0.2000
     25 C25        -7.3602    2.2268   55.9571 C.2     1  ZINC000501032137    0.1800
     26 N26        -7.6707    1.5738   57.0367 N.2     1  ZINC000501032137   -0.4600
     27 H27        -7.9818    1.4293   65.8759 H       1  ZINC000501032137    0.0600
     28 H28        -9.0323    0.1873   66.5987 H       1  ZINC000501032137    0.0600
     29 H29        -7.3245   -0.1803   66.2574 H       1  ZINC000501032137    0.0600
     30 H30        -7.7607    0.0499   63.8272 H       1  ZINC000501032137    0.0700
     31 H31        -8.8112   -1.1920   64.5500 H       1  ZINC000501032137    0.0700
     32 H32       -10.6144    0.5595   64.7754 H       1  ZINC000501032137    0.0500
     33 H33        -9.5673    1.6855   63.8787 H       1  ZINC000501032137    0.0500
     34 H34        -8.7925    1.0566   61.7448 H       1  ZINC000501032137    0.0700
     35 H35        -8.5644   -0.6984   61.9353 H       1  ZINC000501032137    0.0600
     36 H36        -9.3449   -1.9067   59.3415 H       1  ZINC000501032137    0.0900
     37 H37        -9.8054   -2.1985   61.0358 H       1  ZINC000501032137    0.0800
     38 H38       -12.3511   -1.3943   61.5249 H       1  ZINC000501032137    0.1200
     39 H39       -14.6310   -1.9832   60.8048 H       1  ZINC000501032137    0.1300
     40 H40       -15.0088   -2.9280   58.5630 H       1  ZINC000501032137    0.1300
     41 H41       -10.8255   -2.6893   57.7586 H       1  ZINC000501032137    0.1200
     42 H42        -8.2681    0.7097   59.4851 H       1  ZINC000501032137    0.4100
     43 H43       -11.5962    2.7939   56.4662 H       1  ZINC000501032137    0.1500
     44 H44       -12.1824    3.2926   54.0489 H       1  ZINC000501032137    0.1100
     45 H45       -10.5205    2.6914   53.5219 H       1  ZINC000501032137    0.1000
     46 H46       -11.0329    0.4108   54.5069 H       1  ZINC000501032137    0.1000
     47 H47       -12.6949    1.0119   55.0339 H       1  ZINC000501032137    0.1100
     48 H48        -6.3558    2.4446   55.6251 H       1  ZINC000501032137    0.2500
@<TRIPOS>BOND
     1     1     2    1
     2     1    27    1
     3     1    28    1
     4     1    29    1
     5     2     3    1
     6     2    30    1
     7     2    31    1
     8     3     4    1
     9     3    32    1
    10     3    33    1
    11     4     5    1
    12     5     6    1
    13     5    34    1
    14     5    35    1
    15     6     7    1
    16     6     8    1
    17     6    16    1
    18     8     9    1
    19     8    36    1
    20     8    37    1
    21     9    15   ar
    22     9    10   ar
    23    10    11   ar
    24    10    38    1
    25    11    12   ar
    26    11    39    1
    27    12    13   ar
    28    12    40    1
    29    13    14    1
    30    13    15   ar
    31    15    41    1
    32    16    17   am
    33    16    42    1
    34    17    18    2
    35    17    19    1
    36    19    26    1
    37    19    20    2
    38    20    21    1
    39    20    24    1
    40    21    23    1
    41    21    22    1
    42    21    43    1
    43    22    23    1
    44    22    44    1
    45    22    45    1
    46    23    46    1
    47    23    47    1
    48    24    25    1
    49    25    26    2
    50    25    48    1
@<TRIPOS>SUBSTRUCTURE
     1 ZINC000501032137        1 TEMP              0 ****  ****    0 ROOT


##########                                Name:    ZINC001342629575
##########                DOCK_Rotatable_Bonds:                   9
##########                         Heavy_Atoms:                  29
##########                    Molecular_Weight:             396.533
##########                DOCK_Rotatable_Bonds:                   9
##########                       Formal_Charge:         -0.00999976
##########                     HBond_Acceptors:                   6
##########                        HBond_Donors:                   0
##########                         Heavy_Atoms:                  29
##########                          Grid_Score:          -29.751247
##########                     Grid_vdw_energy:          -29.613127
##########                      Grid_es_energy:           -0.138120
##########           Internal_energy_repulsive:           16.887007

@<TRIPOS>MOLECULE
ZINC001342629575
 61 64 1 0 0
SMALL
USER_CHARGES


@<TRIPOS>ATOM
      1 C1        -14.4853   -0.1943   51.7748 C.2     1  ZINC001342629575   -0.1800
      2 C2        -13.2662   -0.6731   51.7482 C.2     1  ZINC001342629575   -0.1600
      3 C3        -12.6912   -1.3386   52.9718 C.3     1  ZINC001342629575   -0.0800
      4 C4        -11.9840   -0.2930   53.8363 C.3     1  ZINC001342629575    0.0500
      5 H5        -12.6487    0.5560   53.9963 H       1  ZINC001342629575    0.0900
      6 C6        -11.6195   -0.9030   55.1652 C.2     1  ZINC001342629575    0.2000
      7 N7        -11.4512   -2.1712   55.4125 N.2     1  ZINC001342629575   -0.2700
      8 N8        -11.1465   -2.3423   56.6494 N.2     1  ZINC001342629575   -0.3000
      9 C9        -11.1038   -1.1830   57.2625 C.2     1  ZINC001342629575    0.3400
     10 N10       -10.8093   -0.9686   58.5996 N.3     1  ZINC001342629575   -0.4300
     11 C11        -9.4015   -1.3359   58.9002 C.3     1  ZINC001342629575    0.0400
     12 C12        -9.3772   -1.5672   60.4263 C.3     1  ZINC001342629575   -0.1200
     13 C13       -10.8326   -1.9134   60.8026 C.3     1  ZINC001342629575   -0.1200
     14 C14       -11.6139   -1.8623   59.4720 C.3     1  ZINC001342629575    0.0700
     15 H15       -11.6846   -2.8579   59.0342 H       1  ZINC001342629575    0.0900
     16 C16       -13.0103   -1.2782   59.6953 C.3     1  ZINC001342629575    0.1000
     17 H17       -12.9371   -0.2072   59.8842 H       1  ZINC001342629575    0.0700
     18 C18       -13.6845   -1.9770   60.8954 C.3     1  ZINC001342629575   -0.1400
     19 C19       -15.1546   -2.1138   60.4138 C.3     1  ZINC001342629575   -0.1600
     20 C20       -14.9468   -2.3417   58.8953 C.3     1  ZINC001342629575    0.0500
     21 O21       -13.8255   -1.5133   58.5412 O.3     1  ZINC001342629575   -0.3700
     22 N22       -11.3984   -0.2279   56.3336 N.pl3   1  ZINC001342629575   -0.4600
     23 C23       -11.4723    1.2197   56.5461 C.3     1  ZINC001342629575    0.1100
     24 C24       -10.0803    1.7573   56.8840 C.3     1  ZINC001342629575    0.0500
     25 O25        -9.2731    1.7638   55.7048 O.3     1  ZINC001342629575   -0.3800
     26 C26        -7.9370    2.2239   55.9177 C.3     1  ZINC001342629575    0.0300
     27 C27       -10.7328    0.1735   53.1377 C.ar    1  ZINC001342629575   -0.0900
     28 C28        -9.7094   -0.7202   52.8828 C.ar    1  ZINC001342629575   -0.0900
     29 C29        -8.5618   -0.2924   52.2419 C.ar    1  ZINC001342629575   -0.1200
     30 C30        -8.4376    1.0290   51.8555 C.ar    1  ZINC001342629575   -0.1200
     31 C31        -9.4614    1.9225   52.1096 C.ar    1  ZINC001342629575   -0.1200
     32 C32       -10.6108    1.4937   52.7466 C.ar    1  ZINC001342629575   -0.1100
     33 H33       -14.8973    0.2828   50.8979 H       1  ZINC001342629575    0.1000
     34 H34       -15.0799   -0.2806   52.6722 H       1  ZINC001342629575    0.1000
     35 H35       -12.6732   -0.5906   50.8493 H       1  ZINC001342629575    0.1000
     36 H36       -13.4945   -1.8010   53.5453 H       1  ZINC001342629575    0.0900
     37 H37       -11.9757   -2.1025   52.6675 H       1  ZINC001342629575    0.0800
     38 H38        -9.1261   -2.2492   58.3729 H       1  ZINC001342629575    0.0600
     39 H39        -8.7299   -0.5216   58.6283 H       1  ZINC001342629575    0.0800
     40 H40        -8.7148   -2.3969   60.6730 H       1  ZINC001342629575    0.0800
     41 H41        -9.0584   -0.6611   60.9416 H       1  ZINC001342629575    0.0800
     42 H42       -10.8846   -2.9131   61.2339 H       1  ZINC001342629575    0.0800
     43 H43       -11.2281   -1.1773   61.5024 H       1  ZINC001342629575    0.0800
     44 H44       -13.2416   -2.9570   61.0727 H       1  ZINC001342629575    0.0900
     45 H45       -13.6254   -1.3559   61.7893 H       1  ZINC001342629575    0.0800
     46 H46       -15.6415   -2.9721   60.8768 H       1  ZINC001342629575    0.0800
     47 H47       -15.7161   -1.1982   60.6004 H       1  ZINC001342629575    0.0800
     48 H48       -14.7213   -3.3896   58.6974 H       1  ZINC001342629575    0.0600
     49 H49       -15.8335   -2.0335   58.3416 H       1  ZINC001342629575    0.0900
     50 H50       -11.8378    1.7019   55.6395 H       1  ZINC001342629575    0.1000
     51 H51       -12.1535    1.4316   57.3703 H       1  ZINC001342629575    0.1100
     52 H52       -10.1669    2.7727   57.2706 H       1  ZINC001342629575    0.0600
     53 H53        -9.6176    1.1198   57.6375 H       1  ZINC001342629575    0.0600
     54 H54        -7.3896    2.1986   54.9754 H       1  ZINC001342629575    0.0900
     55 H55        -7.9605    3.2453   56.2971 H       1  ZINC001342629575    0.0400
     56 H56        -7.4416    1.5782   56.6429 H       1  ZINC001342629575    0.0400
     57 H57        -9.8064   -1.7526   53.1847 H       1  ZINC001342629575    0.1300
     58 H58        -7.7620   -0.9905   52.0435 H       1  ZINC001342629575    0.1200
     59 H59        -7.5407    1.3635   51.3555 H       1  ZINC001342629575    0.1200
     60 H60        -9.3642    2.9549   51.8079 H       1  ZINC001342629575    0.1200
     61 H61       -11.4107    2.1918   52.9450 H       1  ZINC001342629575    0.1200
@<TRIPOS>BOND
     1     1     2    2
     2     1    33    1
     3     1    34    1
     4     2     3    1
     5     2    35    1
     6     3     4    1
     7     3    36    1
     8     3    37    1
     9     4     5    1
    10     4     6    1
    11     4    27    1
    12     6    22    1
    13     6     7    2
    14     7     8    1
    15     8     9    2
    16     9    10    1
    17     9    22    1
    18    10    14    1
    19    10    11    1
    20    11    12    1
    21    11    38    1
    22    11    39    1
    23    12    13    1
    24    12    40    1
    25    12    41    1
    26    13    14    1
    27    13    42    1
    28    13    43    1
    29    14    15    1
    30    14    16    1
    31    16    17    1
    32    16    21    1
    33    16    18    1
    34    18    19    1
    35    18    44    1
    36    18    45    1
    37    19    20    1
    38    19    46    1
    39    19    47    1
    40    20    21    1
    41    20    48    1
    42    20    49    1
    43    22    23    1
    44    23    24    1
    45    23    50    1
    46    23    51    1
    47    24    25    1
    48    24    52    1
    49    24    53    1
    50    25    26    1
    51    26    54    1
    52    26    55    1
    53    26    56    1
    54    27    32   ar
    55    27    28   ar
    56    28    29   ar
    57    28    57    1
    58    29    30   ar
    59    29    58    1
    60    30    31   ar
    61    30    59    1
    62    31    32   ar
    63    31    60    1
    64    32    61    1
@<TRIPOS>SUBSTRUCTURE
     1 ZINC001342629575        1 TEMP              0 ****  ****    0 ROOT


##########                                Name:    ZINC000745364361
##########                DOCK_Rotatable_Bonds:                   8
##########                         Heavy_Atoms:                  29
##########                    Molecular_Weight:             398.434
##########                DOCK_Rotatable_Bonds:                   8
##########                       Formal_Charge:          0.00999923
##########                     HBond_Acceptors:                   7
##########                        HBond_Donors:                   1
##########                         Heavy_Atoms:                  29
##########                          Grid_Score:          -29.748756
##########                     Grid_vdw_energy:          -30.609137
##########                      Grid_es_energy:            0.860380
##########           Internal_energy_repulsive:           11.597475

@<TRIPOS>MOLECULE
ZINC000745364361
 52 54 1 0 0
SMALL
USER_CHARGES


@<TRIPOS>ATOM
      1 C1        -14.7739   -5.8491   55.8531 C.3     1  ZINC000745364361   -0.1700
      2 C2        -14.3931   -4.6234   56.6860 C.3     1  ZINC000745364361    0.0700
      3 H3        -13.7250   -4.9254   57.4924 H       1  ZINC000745364361    0.1100
      4 O4        -15.5925   -4.0285   57.2481 O.3     1  ZINC000745364361   -0.3200
      5 C5        -15.4462   -3.3068   58.3704 C.2     1  ZINC000745364361    0.4700
      6 O6        -15.6011   -3.8290   59.4489 O.2     1  ZINC000745364361   -0.4900
      7 C7        -15.0885   -1.8454   58.2851 C.3     1  ZINC000745364361   -0.0400
      8 H8        -14.3135   -1.7042   57.5318 H       1  ZINC000745364361    0.1200
      9 C9        -16.3294   -1.0385   57.8976 C.3     1  ZINC000745364361   -0.1400
     10 C10       -14.5803   -1.3737   59.6231 C.ar    1  ZINC000745364361   -0.0500
     11 C11       -15.4393   -1.3065   60.7039 C.ar    1  ZINC000745364361   -0.1000
     12 C12       -14.9744   -0.8739   61.9321 C.ar    1  ZINC000745364361   -0.0900
     13 C13       -13.6502   -0.5084   62.0805 C.ar    1  ZINC000745364361   -0.1500
     14 C14       -12.7885   -0.5758   60.9985 C.ar    1  ZINC000745364361    0.1000
     15 F15       -11.4935   -0.2186   61.1424 F       1  ZINC000745364361   -0.1400
     16 C16       -13.2539   -1.0140   59.7706 C.ar    1  ZINC000745364361   -0.1400
     17 C17       -13.6970   -3.6159   55.8076 C.2     1  ZINC000745364361    0.5200
     18 O18       -14.3037   -3.0739   54.9079 O.2     1  ZINC000745364361   -0.5000
     19 N19       -12.4004   -3.3171   56.0218 N.am    1  ZINC000745364361   -0.6700
     20 C20       -11.7534   -2.3806   55.2053 C.ar    1  ZINC000745364361    0.1200
     21 C21       -11.2621   -1.2032   55.7539 C.ar    1  ZINC000745364361   -0.1100
     22 C22       -10.6245   -0.2803   54.9493 C.ar    1  ZINC000745364361   -0.1400
     23 C23       -10.4740   -0.5294   53.5914 C.ar    1  ZINC000745364361    0.1500
     24 N24        -9.8274    0.4072   52.7750 N.am    1  ZINC000745364361   -0.5600
     25 C25       -10.4540    1.6316   52.2627 C.3     1  ZINC000745364361    0.0900
     26 C26        -9.2853    2.5331   51.8072 C.3     1  ZINC000745364361   -0.1300
     27 C27        -8.1831    1.4918   51.5044 C.3     1  ZINC000745364361   -0.1500
     28 C28        -8.5516    0.3032   52.3647 C.2     1  ZINC000745364361    0.5200
     29 O29        -7.8065   -0.6140   52.6385 O.2     1  ZINC000745364361   -0.5100
     30 C30       -10.9640   -1.7075   53.0432 C.ar    1  ZINC000745364361   -0.1400
     31 C31       -11.5982   -2.6321   53.8485 C.ar    1  ZINC000745364361   -0.0900
     32 H32       -15.2774   -6.5778   56.4884 H       1  ZINC000745364361    0.0800
     33 H33       -15.4420   -5.5471   55.0467 H       1  ZINC000745364361    0.0800
     34 H34       -13.8736   -6.2956   55.4312 H       1  ZINC000745364361    0.0800
     35 H35       -17.1043   -1.1795   58.6510 H       1  ZINC000745364361    0.0700
     36 H36       -16.0708    0.0186   57.8360 H       1  ZINC000745364361    0.0800
     37 H37       -16.6970   -1.3796   56.9299 H       1  ZINC000745364361    0.0800
     38 H38       -16.4746   -1.5916   60.5887 H       1  ZINC000745364361    0.1300
     39 H39       -15.6467   -0.8214   62.7757 H       1  ZINC000745364361    0.1400
     40 H40       -13.2874   -0.1699   63.0397 H       1  ZINC000745364361    0.1400
     41 H41       -12.5826   -1.0674   58.9262 H       1  ZINC000745364361    0.1400
     42 H42       -11.9152   -3.7505   56.7411 H       1  ZINC000745364361    0.4100
     43 H43       -11.3791   -1.0094   56.8099 H       1  ZINC000745364361    0.1300
     44 H44       -10.2431    0.6357   55.3758 H       1  ZINC000745364361    0.1600
     45 H45       -11.1020    1.3986   51.4178 H       1  ZINC000745364361    0.0800
     46 H46       -11.0237    2.1224   53.0518 H       1  ZINC000745364361    0.0900
     47 H47        -9.5507    3.0923   50.9100 H       1  ZINC000745364361    0.1000
     48 H48        -8.9769    3.2060   52.6075 H       1  ZINC000745364361    0.0900
     49 H49        -8.1936    1.2212   50.4486 H       1  ZINC000745364361    0.1100
     50 H50        -7.2047    1.8776   51.7906 H       1  ZINC000745364361    0.1100
     51 H51       -10.8467   -1.9014   51.9873 H       1  ZINC000745364361    0.1300
     52 H52       -11.9794   -3.5482   53.4220 H       1  ZINC000745364361    0.1400
@<TRIPOS>BOND
     1     1     2    1
     2     1    32    1
     3     1    33    1
     4     1    34    1
     5     2     3    1
     6     2     4    1
     7     2    17    1
     8     4     5    1
     9     5     6    2
    10     5     7    1
    11     7     8    1
    12     7     9    1
    13     7    10    1
    14     9    35    1
    15     9    36    1
    16     9    37    1
    17    10    16   ar
    18    10    11   ar
    19    11    12   ar
    20    11    38    1
    21    12    13   ar
    22    12    39    1
    23    13    14   ar
    24    13    40    1
    25    14    15    1
    26    14    16   ar
    27    16    41    1
    28    17    18    2
    29    17    19   am
    30    19    20    1
    31    19    42    1
    32    20    31   ar
    33    20    21   ar
    34    21    22   ar
    35    21    43    1
    36    22    23   ar
    37    22    44    1
    38    23    24    1
    39    23    30   ar
    40    24    28   am
    41    24    25    1
    42    25    26    1
    43    25    45    1
    44    25    46    1
    45    26    27    1
    46    26    47    1
    47    26    48    1
    48    27    28    1
    49    27    49    1
    50    27    50    1
    51    28    29    2
    52    30    31   ar
    53    30    51    1
    54    31    52    1
@<TRIPOS>SUBSTRUCTURE
     1 ZINC000745364361        1 TEMP              0 ****  ****    0 ROOT


##########                                Name:    ZINC000279593480
##########                DOCK_Rotatable_Bonds:                   9
##########                         Heavy_Atoms:                  23
##########                    Molecular_Weight:              340.85
##########                DOCK_Rotatable_Bonds:                   9
##########                       Formal_Charge:          -0.0500002
##########                     HBond_Acceptors:                   6
##########                        HBond_Donors:                   3
##########                         Heavy_Atoms:                  23
##########                          Grid_Score:          -29.734320
##########                     Grid_vdw_energy:          -30.541008
##########                      Grid_es_energy:            0.806689
##########           Internal_energy_repulsive:           20.869789

@<TRIPOS>MOLECULE
ZINC000279593480
 48 49 1 0 0
SMALL
USER_CHARGES


@<TRIPOS>ATOM
      1 C1         -4.3961    2.8988   50.4952 C.3     1  ZINC000279593480   -0.1400
      2 C2         -5.0745    2.1457   51.6414 C.3     1  ZINC000279593480   -0.1400
      3 C3         -6.3151    2.9177   52.0951 C.3     1  ZINC000279593480    0.1700
      4 H4         -6.8907    3.2258   51.2224 H       1  ZINC000279593480    0.0900
      5 C5         -5.8850    4.1551   52.8853 C.3     1  ZINC000279593480   -0.0900
      6 C6         -5.1089    3.7279   54.1045 C.ar    1  ZINC000279593480   -0.0800
      7 C7         -5.7759    3.4240   55.2766 C.ar    1  ZINC000279593480   -0.1000
      8 C8         -5.0647    3.0320   56.3951 C.ar    1  ZINC000279593480   -0.1100
      9 C9         -3.6850    2.9439   56.3414 C.ar    1  ZINC000279593480   -0.0400
     10 Cl10       -2.7911    2.4512   57.7457 Cl      1  ZINC000279593480   -0.0700
     11 C11        -3.0181    3.2482   55.1682 C.ar    1  ZINC000279593480   -0.1100
     12 C12        -3.7308    3.6346   54.0487 C.ar    1  ZINC000279593480   -0.1000
     13 N13        -7.1412    2.0576   52.9461 N.am    1  ZINC000279593480   -0.7400
     14 C14        -7.9312    1.1180   52.3898 C.2     1  ZINC000279593480    0.7100
     15 O15        -7.9571    0.9832   51.1816 O.2     1  ZINC000279593480   -0.5800
     16 N16        -8.6924    0.3279   53.1725 N.am    1  ZINC000279593480   -0.7500
     17 C17        -9.5498   -0.6946   52.5679 C.3     1  ZINC000279593480    0.1200
     18 C18       -10.9065   -0.7059   53.2751 C.3     1  ZINC000279593480    0.0900
     19 O19       -10.7314   -0.6492   54.6923 O.3     1  ZINC000279593480   -0.5400
     20 C20       -11.7812    0.4705   52.7871 C.3     1  ZINC000279593480   -0.1900
     21 C21       -13.0126   -0.2146   52.1541 C.3     1  ZINC000279593480    0.0500
     22 O22       -13.0813   -1.5099   52.7893 O.3     1  ZINC000279593480   -0.3600
     23 C23       -11.7128   -1.9627   52.8792 C.3     1  ZINC000279593480    0.0900
     24 H24       -11.3746   -2.3423   51.9150 H       1  ZINC000279593480    0.0800
     25 C25       -11.5791   -3.0444   53.9531 C.3     1  ZINC000279593480   -0.1400
     26 H26        -4.1018    3.8914   50.8365 H       1  ZINC000279593480    0.0600
     27 H27        -3.5123    2.3489   50.1720 H       1  ZINC000279593480    0.0400
     28 H28        -5.0909    2.9928   49.6607 H       1  ZINC000279593480    0.0600
     29 H29        -5.3688    1.1532   51.3001 H       1  ZINC000279593480    0.0600
     30 H30        -4.3796    2.0518   52.4759 H       1  ZINC000279593480    0.0700
     31 H31        -5.2565    4.7869   52.2576 H       1  ZINC000279593480    0.0800
     32 H32        -6.7682    4.7140   53.1943 H       1  ZINC000279593480    0.0900
     33 H33        -6.8529    3.4930   55.3184 H       1  ZINC000279593480    0.1300
     34 H34        -5.5859    2.7949   57.3109 H       1  ZINC000279593480    0.1300
     35 H35        -1.9411    3.1800   55.1258 H       1  ZINC000279593480    0.1300
     36 H36        -3.2103    3.8718   53.1326 H       1  ZINC000279593480    0.1300
     37 H37        -7.1197    2.1645   53.9100 H       1  ZINC000279593480    0.3900
     38 H38        -8.6727    0.4363   54.1362 H       1  ZINC000279593480    0.3900
     39 H39        -9.6929   -0.4701   51.5109 H       1  ZINC000279593480    0.0800
     40 H40        -9.0781   -1.6718   52.6712 H       1  ZINC000279593480    0.0800
     41 H41       -11.4922   -0.9701   55.1956 H       1  ZINC000279593480    0.3700
     42 H42       -12.0823    1.0966   53.6270 H       1  ZINC000279593480    0.0900
     43 H43       -11.2472    1.0602   52.0420 H       1  ZINC000279593480    0.0900
     44 H44       -13.9155    0.3590   52.3635 H       1  ZINC000279593480    0.1000
     45 H45       -12.8737   -0.3262   51.0788 H       1  ZINC000279593480    0.0600
     46 H46       -12.1973   -3.9011   53.6848 H       1  ZINC000279593480    0.0600
     47 H47       -10.5374   -3.3567   54.0264 H       1  ZINC000279593480    0.0700
     48 H48       -11.9074   -2.6459   54.9130 H       1  ZINC000279593480    0.0700
@<TRIPOS>BOND
     1     1     2    1
     2     1    26    1
     3     1    27    1
     4     1    28    1
     5     2     3    1
     6     2    29    1
     7     2    30    1
     8     3     4    1
     9     3     5    1
    10     3    13    1
    11     5     6    1
    12     5    31    1
    13     5    32    1
    14     6    12   ar
    15     6     7   ar
    16     7     8   ar
    17     7    33    1
    18     8     9   ar
    19     8    34    1
    20     9    10    1
    21     9    11   ar
    22    11    12   ar
    23    11    35    1
    24    12    36    1
    25    13    14   am
    26    13    37    1
    27    14    15    2
    28    14    16   am
    29    16    17    1
    30    16    38    1
    31    17    18    1
    32    17    39    1
    33    17    40    1
    34    18    23    1
    35    18    19    1
    36    18    20    1
    37    19    41    1
    38    20    21    1
    39    20    42    1
    40    20    43    1
    41    21    22    1
    42    21    44    1
    43    21    45    1
    44    22    23    1
    45    23    24    1
    46    23    25    1
    47    25    46    1
    48    25    47    1
    49    25    48    1
@<TRIPOS>SUBSTRUCTURE
     1 ZINC000279593480        1 TEMP              0 ****  ****    0 ROOT


##########                                Name:    ZINC001500042809
##########                DOCK_Rotatable_Bonds:                   9
##########                         Heavy_Atoms:                  24
##########                    Molecular_Weight:              346.45
##########                DOCK_Rotatable_Bonds:                   9
##########                       Formal_Charge:           0.0200001
##########                     HBond_Acceptors:                   6
##########                        HBond_Donors:                   2
##########                         Heavy_Atoms:                  24
##########                          Grid_Score:          -29.726633
##########                     Grid_vdw_energy:          -29.464777
##########                      Grid_es_energy:           -0.261856
##########           Internal_energy_repulsive:           12.458469

@<TRIPOS>MOLECULE
ZINC001500042809
 46 47 1 0 0
SMALL
USER_CHARGES


@<TRIPOS>ATOM
      1 C1        -10.9950   -0.3094   54.8712 C.3     1  ZINC001500042809    0.0200
      2 O2        -10.9391   -0.4547   53.4508 O.3     1  ZINC001500042809   -0.3100
      3 C3         -9.9498    0.2102   52.8019 C.ar    1  ZINC001500042809    0.1600
      4 C4        -10.0150    1.5924   52.6690 C.ar    1  ZINC001500042809   -0.1600
      5 C5         -9.0134    2.2706   52.0109 C.ar    1  ZINC001500042809   -0.0200
      6 C6         -7.9304    1.5676   51.4768 C.ar    1  ZINC001500042809   -0.1800
      7 C7         -6.8547    2.2907   50.7707 C.2     1  ZINC001500042809    0.5600
      8 O8         -7.0584    2.7563   49.6661 O.2     1  ZINC001500042809   -0.5300
      9 N9         -5.6465    2.4351   51.3505 N.am    1  ZINC001500042809   -0.7300
     10 C10        -4.5793    3.1544   50.6504 C.3     1  ZINC001500042809    0.1300
     11 C11        -3.3796    3.3226   51.5849 C.3     1  ZINC001500042809   -0.1200
     12 H12        -3.1531    2.3684   52.0607 H       1  ZINC001500042809    0.0900
     13 C13        -2.1667    3.7911   50.7786 C.3     1  ZINC001500042809   -0.1500
     14 C14        -3.7110    4.3617   52.6580 C.3     1  ZINC001500042809    0.1300
     15 N15        -3.5367    3.7659   53.9850 N.am    1  ZINC001500042809   -0.7300
     16 C16        -2.3497    3.8613   54.6159 C.2     1  ZINC001500042809    0.5900
     17 O17        -1.4220    4.4412   54.0827 O.2     1  ZINC001500042809   -0.5200
     18 C18        -2.1758    3.2667   55.9445 C.2     1  ZINC001500042809   -0.2800
     19 C19        -0.9768    2.9800   56.5339 C.2     1  ZINC001500042809   -0.0100
     20 C20         0.3536    3.2455   55.8776 C.3     1  ZINC001500042809   -0.1100
     21 C21        -1.1049    2.4258   57.7855 C.2     1  ZINC001500042809   -0.1500
     22 C22        -2.3642    2.2635   58.2081 C.2     1  ZINC001500042809   -0.2200
     23 S23        -3.4765    2.8150   57.0379 S.3     1  ZINC001500042809    0.1900
     24 C24        -7.8712    0.1777   51.6079 C.ar    1  ZINC001500042809   -0.0400
     25 C25        -8.8744   -0.4927   52.2716 C.ar    1  ZINC001500042809   -0.2200
     26 H26       -10.0640   -0.6684   55.3101 H       1  ZINC001500042809    0.0600
     27 H27       -11.1341    0.7417   55.1238 H       1  ZINC001500042809    0.0600
     28 H28       -11.8294   -0.8908   55.2633 H       1  ZINC001500042809    0.1000
     29 H29       -10.8524    2.1349   53.0822 H       1  ZINC001500042809    0.1400
     30 H30        -9.0651    3.3443   51.9076 H       1  ZINC001500042809    0.1400
     31 H31        -5.4837    2.0627   52.2311 H       1  ZINC001500042809    0.4000
     32 H32        -4.9424    4.1358   50.3449 H       1  ZINC001500042809    0.0800
     33 H33        -4.2770    2.5884   49.7694 H       1  ZINC001500042809    0.0800
     34 H34        -1.9308    3.0509   50.0141 H       1  ZINC001500042809    0.0600
     35 H35        -2.3934    4.7453   50.3028 H       1  ZINC001500042809    0.0600
     36 H36        -1.3121    3.9110   51.4444 H       1  ZINC001500042809    0.0600
     37 H37        -3.0440    5.2173   52.5534 H       1  ZINC001500042809    0.0800
     38 H38        -4.7438    4.6895   52.5397 H       1  ZINC001500042809    0.0800
     39 H39        -4.2758    3.3027   54.4096 H       1  ZINC001500042809    0.4000
     40 H40         0.6932    4.2482   56.1373 H       1  ZINC001500042809    0.0800
     41 H41         1.0826    2.5135   56.2251 H       1  ZINC001500042809    0.0700
     42 H42         0.2470    3.1669   54.7957 H       1  ZINC001500042809    0.0900
     43 H43        -0.2517    2.1420   58.3836 H       1  ZINC001500042809    0.1500
     44 H44        -2.6394    1.8431   59.1642 H       1  ZINC001500042809    0.1700
     45 H45        -7.0379   -0.3696   51.1925 H       1  ZINC001500042809    0.1300
     46 H46        -8.8277   -1.5665   52.3762 H       1  ZINC001500042809    0.1400
@<TRIPOS>BOND
     1     1     2    1
     2     1    26    1
     3     1    27    1
     4     1    28    1
     5     2     3    1
     6     3    25   ar
     7     3     4   ar
     8     4     5   ar
     9     4    29    1
    10     5     6   ar
    11     5    30    1
    12     6     7    1
    13     6    24   ar
    14     7     8    2
    15     7     9   am
    16     9    10    1
    17     9    31    1
    18    10    11    1
    19    10    32    1
    20    10    33    1
    21    11    12    1
    22    11    13    1
    23    11    14    1
    24    13    34    1
    25    13    35    1
    26    13    36    1
    27    14    15    1
    28    14    37    1
    29    14    38    1
    30    15    16   am
    31    15    39    1
    32    16    17    2
    33    16    18    1
    34    18    23    1
    35    18    19    2
    36    19    20    1
    37    19    21    1
    38    20    40    1
    39    20    41    1
    40    20    42    1
    41    21    22    2
    42    21    43    1
    43    22    23    1
    44    22    44    1
    45    24    25   ar
    46    24    45    1
    47    25    46    1
@<TRIPOS>SUBSTRUCTURE
     1 ZINC001500042809        1 TEMP              0 ****  ****    0 ROOT


##########                                Name:    ZINC000888733009
##########                DOCK_Rotatable_Bonds:                   6
##########                         Heavy_Atoms:                  25
##########                    Molecular_Weight:             360.434
##########                DOCK_Rotatable_Bonds:                   6
##########                       Formal_Charge:        -1.02073e-06
##########                     HBond_Acceptors:                   7
##########                        HBond_Donors:                   2
##########                         Heavy_Atoms:                  25
##########                          Grid_Score:          -29.712330
##########                     Grid_vdw_energy:          -28.694206
##########                      Grid_es_energy:           -1.018124
##########           Internal_energy_repulsive:           23.985491

@<TRIPOS>MOLECULE
ZINC000888733009
 45 48 1 0 0
SMALL
USER_CHARGES


@<TRIPOS>ATOM
      1 C1         -8.9729    0.6942   52.5177 C.3     1  ZINC000888733009   -0.1500
      2 C2        -10.3632    0.0556   52.5339 C.3     1  ZINC000888733009    0.0700
      3 H3        -11.0416    0.6092   51.8848 H       1  ZINC000888733009    0.0700
      4 C4        -10.9177    0.0095   53.9780 C.3     1  ZINC000888733009   -0.1300
      5 C5        -11.6628   -1.3308   54.0367 C.3     1  ZINC000888733009   -0.1100
      6 C6        -11.3191   -2.2316   55.2202 C.3     1  ZINC000888733009   -0.1300
      7 C7        -12.8087   -2.6209   55.2433 C.3     1  ZINC000888733009    0.1200
      8 N8        -13.3672   -2.7220   56.5939 N.am    1  ZINC000888733009   -0.7100
      9 C9        -14.7021   -2.7857   56.7682 C.2     1  ZINC000888733009    0.5900
     10 O10       -15.4436   -2.7608   55.8034 O.2     1  ZINC000888733009   -0.5600
     11 C11       -15.2609   -2.8851   58.1197 C.2     1  ZINC000888733009   -0.2400
     12 C12       -14.5786   -2.5196   59.2517 C.2     1  ZINC000888733009    0.0800
     13 N13       -13.2889   -2.0148   59.2657 N.am    1  ZINC000888733009   -0.6100
     14 C14       -12.7423   -1.5942   60.4236 C.2     1  ZINC000888733009    0.6000
     15 O15       -13.3814   -1.6594   61.4573 O.2     1  ZINC000888733009   -0.4900
     16 C16       -11.3780   -1.0583   60.4381 C.2     1  ZINC000888733009   -0.0900
     17 C17       -10.5563   -0.9253   59.3552 C.2     1  ZINC000888733009   -0.1000
     18 C18        -9.3546   -0.3737   59.8259 C.2     1  ZINC000888733009   -0.2300
     19 C19        -9.4934   -0.1963   61.1584 C.2     1  ZINC000888733009    0.0100
     20 O20       -10.7159   -0.6045   61.5226 O.3     1  ZINC000888733009   -0.1600
     21 S21       -15.5359   -2.7715   60.6393 S.3     1  ZINC000888733009    0.3000
     22 C22       -16.8834   -3.3801   59.6944 C.2     1  ZINC000888733009   -0.2800
     23 C23       -16.5930   -3.3735   58.4014 C.2     1  ZINC000888733009   -0.0900
     24 C24       -13.0967   -1.2728   54.5571 C.3     1  ZINC000888733009   -0.1400
     25 C25       -11.4801   -1.9542   52.6465 C.3     1  ZINC000888733009    0.0700
     26 O26       -10.2865   -1.3267   52.1194 O.3     1  ZINC000888733009   -0.3700
     27 H27        -8.5853    0.6949   51.4989 H       1  ZINC000888733009    0.0600
     28 H28        -9.0398    1.7194   52.8818 H       1  ZINC000888733009    0.0700
     29 H29        -8.3033    0.1232   53.1609 H       1  ZINC000888733009    0.0600
     30 H30       -10.1031    0.0272   54.7022 H       1  ZINC000888733009    0.0800
     31 H31       -11.6044    0.8379   54.1516 H       1  ZINC000888733009    0.0800
     32 H32       -10.6550   -3.0570   54.9636 H       1  ZINC000888733009    0.0800
     33 H33       -10.9956   -1.6854   56.1063 H       1  ZINC000888733009    0.0900
     34 H34       -13.0430   -3.4861   54.6231 H       1  ZINC000888733009    0.1200
     35 H35       -12.7762   -2.7431   57.3628 H       1  ZINC000888733009    0.4000
     36 H36       -12.7791   -1.9640   58.4420 H       1  ZINC000888733009    0.4400
     37 H37       -10.7865   -1.1931   58.3346 H       1  ZINC000888733009    0.1700
     38 H38        -8.4827   -0.1360   59.2344 H       1  ZINC000888733009    0.1600
     39 H39        -8.7436    0.2118   61.8200 H       1  ZINC000888733009    0.2200
     40 H40       -17.8237   -3.7111   60.1100 H       1  ZINC000888733009    0.1700
     41 H41       -17.2784   -3.7067   57.6361 H       1  ZINC000888733009    0.1500
     42 H42       -13.2759   -0.4555   55.2556 H       1  ZINC000888733009    0.0900
     43 H43       -13.8501   -1.3336   53.7716 H       1  ZINC000888733009    0.0800
     44 H44       -11.3393   -3.0319   52.7285 H       1  ZINC000888733009    0.0900
     45 H45       -12.3378   -1.7287   52.0129 H       1  ZINC000888733009    0.0700
@<TRIPOS>BOND
     1     1     2    1
     2     1    27    1
     3     1    28    1
     4     1    29    1
     5     2     3    1
     6     2    26    1
     7     2     4    1
     8     4     5    1
     9     4    30    1
    10     4    31    1
    11     5    24    1
    12     5     6    1
    13     5    25    1
    14     6     7    1
    15     6    32    1
    16     6    33    1
    17     7     8    1
    18     7    24    1
    19     7    34    1
    20     8     9   am
    21     8    35    1
    22     9    10    2
    23     9    11    1
    24    11    23    1
    25    11    12    2
    26    12    13    1
    27    12    21    1
    28    13    14   am
    29    13    36    1
    30    14    15    2
    31    14    16    1
    32    16    20    1
    33    16    17    2
    34    17    18    1
    35    17    37    1
    36    18    19    2
    37    18    38    1
    38    19    20    1
    39    19    39    1
    40    21    22    1
    41    22    23    2
    42    22    40    1
    43    23    41    1
    44    24    42    1
    45    24    43    1
    46    25    26    1
    47    25    44    1
    48    25    45    1
@<TRIPOS>SUBSTRUCTURE
     1 ZINC000888733009        1 TEMP              0 ****  ****    0 ROOT


##########                                Name:    ZINC000439870054
##########                DOCK_Rotatable_Bonds:                   5
##########                         Heavy_Atoms:                  27
##########                    Molecular_Weight:             421.974
##########                DOCK_Rotatable_Bonds:                   5
##########                       Formal_Charge:           0.0200003
##########                     HBond_Acceptors:                   9
##########                        HBond_Donors:                   0
##########                         Heavy_Atoms:                  27
##########                          Grid_Score:          -29.654131
##########                     Grid_vdw_energy:          -28.904499
##########                      Grid_es_energy:           -0.749633
##########           Internal_energy_repulsive:           70.019104

@<TRIPOS>MOLECULE
ZINC000439870054
 47 50 1 0 0
SMALL
USER_CHARGES


@<TRIPOS>ATOM
      1 C1         -9.8306   -2.1524   58.8131 C.3     1  ZINC000439870054   -0.1400
      2 C2        -10.0044   -0.6787   59.1856 C.3     1  ZINC000439870054    0.0000
      3 C3         -9.3819   -0.4232   60.5598 C.3     1  ZINC000439870054   -0.1400
      4 C4         -9.3207    0.1837   58.1561 C.2     1  ZINC000439870054    0.1900
      5 N5         -8.0985    0.6461   58.2178 N.2     1  ZINC000439870054   -0.2900
      6 N6         -7.8449    1.3482   57.1666 N.2     1  ZINC000439870054   -0.2700
      7 C7         -8.8888    1.3647   56.3967 C.2     1  ZINC000439870054    0.1600
      8 C8         -9.0719    2.0621   55.0703 C.3     1  ZINC000439870054    0.2400
      9 H9         -9.1349    3.1396   55.2220 H       1  ZINC000439870054    0.1100
     10 C10        -7.9013    1.7334   54.1416 C.3     1  ZINC000439870054   -0.1300
     11 N11       -10.3326    1.5607   54.4908 N.am    1  ZINC000439870054   -0.6300
     12 C12       -10.4152    1.2384   53.1849 C.2     1  ZINC000439870054    0.5300
     13 O13        -9.4444    1.3590   52.4679 O.2     1  ZINC000439870054   -0.4900
     14 C14       -11.7138    0.7282   52.6154 C.3     1  ZINC000439870054   -0.0700
     15 C15       -11.9144   -0.7069   53.0292 C.2     1  ZINC000439870054    0.0900
     16 C16       -11.2360   -1.7096   52.4638 C.2     1  ZINC000439870054   -0.2400
     17 S17       -11.7503   -3.2184   53.2155 S.3     1  ZINC000439870054    0.1300
     18 C18       -12.8611   -2.3207   54.2471 C.2     1  ZINC000439870054    0.1400
     19 C19       -13.7508   -2.9096   55.2597 C.2     1  ZINC000439870054   -0.1300
     20 C20       -13.8711   -4.2298   55.5195 C.2     1  ZINC000439870054   -0.1000
     21 C21       -14.7709   -4.5407   56.5159 C.2     1  ZINC000439870054   -0.1200
     22 C22       -15.3861   -3.4901   57.0724 C.2     1  ZINC000439870054   -0.1500
     23 Cl23      -16.5633   -3.5812   58.3450 Cl      1  ZINC000439870054    0.0000
     24 S24       -14.8173   -2.0033   56.3252 S.3     1  ZINC000439870054    0.2500
     25 N25       -12.7633   -1.0488   53.9721 N.2     1  ZINC000439870054   -0.4400
     26 C26       -11.4966    1.4221   55.3792 C.3     1  ZINC000439870054    0.0900
     27 C27       -11.1885    0.3755   56.4565 C.3     1  ZINC000439870054    0.0900
     28 N28        -9.8514    0.6187   56.9960 N.pl3   1  ZINC000439870054   -0.4700
     29 H29       -10.3251   -2.7762   59.5577 H       1  ZINC000439870054    0.0700
     30 H30       -10.2741   -2.3345   57.8341 H       1  ZINC000439870054    0.0500
     31 H31        -8.7687   -2.3965   58.7820 H       1  ZINC000439870054    0.0700
     32 H32       -11.0662   -0.4346   59.2167 H       1  ZINC000439870054    0.0800
     33 H33        -9.5057    0.6268   60.8252 H       1  ZINC000439870054    0.0500
     34 H34        -9.8765   -1.0469   61.3043 H       1  ZINC000439870054    0.0700
     35 H35        -8.3201   -0.6673   60.5286 H       1  ZINC000439870054    0.0700
     36 H36        -7.9439    0.6809   53.8616 H       1  ZINC000439870054    0.0600
     37 H37        -7.9641    2.3506   53.2453 H       1  ZINC000439870054    0.0900
     38 H38        -6.9617    1.9347   54.6561 H       1  ZINC000439870054    0.0700
     39 H39       -12.5385    1.3335   52.9918 H       1  ZINC000439870054    0.1100
     40 H40       -11.6834    0.7918   51.5276 H       1  ZINC000439870054    0.1200
     41 H41       -10.4992   -1.6121   51.6801 H       1  ZINC000439870054    0.1800
     42 H42       -13.3072   -4.9820   54.9880 H       1  ZINC000439870054    0.1500
     43 H43       -14.9656   -5.5570   56.8249 H       1  ZINC000439870054    0.1600
     44 H44       -11.7091    2.3805   55.8529 H       1  ZINC000439870054    0.0900
     45 H45       -12.3618    1.1026   54.7982 H       1  ZINC000439870054    0.1200
     46 H46       -11.9254    0.4483   57.2563 H       1  ZINC000439870054    0.1100
     47 H47       -11.2242   -0.6213   56.0168 H       1  ZINC000439870054    0.0900
@<TRIPOS>BOND
     1     1     2    1
     2     1    29    1
     3     1    30    1
     4     1    31    1
     5     2     3    1
     6     2     4    1
     7     2    32    1
     8     3    33    1
     9     3    34    1
    10     3    35    1
    11     4    28    1
    12     4     5    2
    13     5     6    1
    14     6     7    2
    15     7    28    1
    16     7     8    1
    17     8     9    1
    18     8    10    1
    19     8    11    1
    20    10    36    1
    21    10    37    1
    22    10    38    1
    23    11    12   am
    24    11    26    1
    25    12    13    2
    26    12    14    1
    27    14    15    1
    28    14    39    1
    29    14    40    1
    30    15    25    1
    31    15    16    2
    32    16    17    1
    33    16    41    1
    34    17    18    1
    35    18    19    1
    36    18    25    2
    37    19    24    1
    38    19    20    2
    39    20    21    1
    40    20    42    1
    41    21    22    2
    42    21    43    1
    43    22    23    1
    44    22    24    1
    45    26    27    1
    46    26    44    1
    47    26    45    1
    48    27    28    1
    49    27    46    1
    50    27    47    1
@<TRIPOS>SUBSTRUCTURE
     1 ZINC000439870054        1 TEMP              0 ****  ****    0 ROOT


##########                                Name:    ZINC000654672208
##########                DOCK_Rotatable_Bonds:                   5
##########                         Heavy_Atoms:                  25
##########                    Molecular_Weight:             365.497
##########                DOCK_Rotatable_Bonds:                   5
##########                       Formal_Charge:           0.0100001
##########                     HBond_Acceptors:                   7
##########                        HBond_Donors:                   1
##########                         Heavy_Atoms:                  25
##########                          Grid_Score:          -29.626879
##########                     Grid_vdw_energy:          -29.506117
##########                      Grid_es_energy:           -0.120761
##########           Internal_energy_repulsive:           17.580950

@<TRIPOS>MOLECULE
ZINC000654672208
 52 54 1 0 0
SMALL
USER_CHARGES


@<TRIPOS>ATOM
      1 C1        -10.7179    4.8529   60.0706 C.3     1  ZINC000654672208   -0.1100
      2 C2        -10.5085    3.3940   60.3847 C.ar    1  ZINC000654672208   -0.1300
      3 C3         -9.5673    2.6571   59.6916 C.ar    1  ZINC000654672208    0.1000
      4 N4         -9.3780    1.3800   59.9612 N.ar    1  ZINC000654672208   -0.4700
      5 C5        -10.0718    0.7582   60.8943 C.ar    1  ZINC000654672208    0.1200
      6 C6         -9.8165   -0.7025   61.1630 C.3     1  ZINC000654672208   -0.0900
      7 C7         -8.9485   -1.2827   60.0446 C.3     1  ZINC000654672208    0.1500
      8 N8         -9.6934   -1.2538   58.7835 N.am    1  ZINC000654672208   -0.7500
      9 C9        -10.4246   -2.3220   58.4081 C.2     1  ZINC000654672208    0.7100
     10 O10       -10.4659   -3.3096   59.1161 O.2     1  ZINC000654672208   -0.5800
     11 N11       -11.1099   -2.2954   57.2479 N.am    1  ZINC000654672208   -0.6300
     12 C12       -11.0694   -1.1090   56.3822 C.3     1  ZINC000654672208    0.1300
     13 C13       -12.5057   -0.6640   56.0900 C.3     1  ZINC000654672208   -0.1400
     14 C14       -13.2920   -1.8400   55.5073 C.3     1  ZINC000654672208   -0.1100
     15 C15       -13.3416   -2.9798   56.5318 C.3     1  ZINC000654672208   -0.0600
     16 C16       -14.1423   -4.1472   55.9456 C.3     1  ZINC000654672208   -0.1200
     17 C17       -14.8164   -4.9211   57.1076 C.3     1  ZINC000654672208   -0.5800
     18 S18       -15.4032   -3.5359   58.1641 S.o2    1  ZINC000654672208    2.3800
     19 O19       -16.5729   -2.9642   57.5948 O.2     1  ZINC000654672208   -0.9300
     20 O20       -15.3985   -3.9400   59.5264 O.2     1  ZINC000654672208   -0.9300
     21 C21       -13.9650   -2.4500   57.8346 C.3     1  ZINC000654672208   -0.5800
     22 C22       -11.9061   -3.4543   56.8230 C.3     1  ZINC000654672208    0.1200
     23 C23       -11.0302    1.4307   61.6290 C.ar    1  ZINC000654672208   -0.1200
     24 C24       -11.8182    0.7124   62.6939 C.3     1  ZINC000654672208   -0.1200
     25 C25       -11.2538    2.7755   61.3772 C.ar    1  ZINC000654672208   -0.0800
     26 H26       -10.0536    5.4567   60.6888 H       1  ZINC000654672208    0.0700
     27 H27       -10.4984    5.0331   59.0182 H       1  ZINC000654672208    0.0700
     28 H28       -11.7531    5.1241   60.2775 H       1  ZINC000654672208    0.0700
     29 H29        -8.9801    3.1323   58.9197 H       1  ZINC000654672208    0.1600
     30 H30        -9.3005   -0.8116   62.1171 H       1  ZINC000654672208    0.0900
     31 H31       -10.7659   -1.2365   61.2002 H       1  ZINC000654672208    0.0900
     32 H32        -8.0404   -0.6884   59.9439 H       1  ZINC000654672208    0.0700
     33 H33        -8.6840   -2.3121   60.2868 H       1  ZINC000654672208    0.0700
     34 H34        -9.6604   -0.4660   58.2187 H       1  ZINC000654672208    0.3900
     35 H35       -10.5334   -0.3058   56.8878 H       1  ZINC000654672208    0.1000
     36 H36       -10.5658   -1.3557   55.4475 H       1  ZINC000654672208    0.0700
     37 H37       -12.9789   -0.3323   57.0142 H       1  ZINC000654672208    0.0700
     38 H38       -12.4935    0.1565   55.3725 H       1  ZINC000654672208    0.0800
     39 H39       -14.3066   -1.5181   55.2727 H       1  ZINC000654672208    0.0800
     40 H40       -12.8025   -2.1896   54.5984 H       1  ZINC000654672208    0.0800
     41 H41       -14.9060   -3.7644   55.2686 H       1  ZINC000654672208    0.1000
     42 H42       -13.4733   -4.8135   55.4010 H       1  ZINC000654672208    0.1000
     43 H43       -15.6522   -5.5205   56.7468 H       1  ZINC000654672208    0.1400
     44 H44       -14.0929   -5.5399   57.6384 H       1  ZINC000654672208    0.1400
     45 H45       -13.2465   -2.5173   58.6513 H       1  ZINC000654672208    0.1400
     46 H46       -14.2931   -1.4188   57.7037 H       1  ZINC000654672208    0.1400
     47 H47       -11.4754   -3.8903   55.9216 H       1  ZINC000654672208    0.0800
     48 H48       -11.9213   -4.1976   57.6200 H       1  ZINC000654672208    0.0800
     49 H49       -11.2966    0.7919   63.6477 H       1  ZINC000654672208    0.0800
     50 H50       -12.8064    1.1641   62.7815 H       1  ZINC000654672208    0.0700
     51 H51       -11.9217   -0.3382   62.4228 H       1  ZINC000654672208    0.0700
     52 H52       -11.9962    3.3264   61.9355 H       1  ZINC000654672208    0.1300
@<TRIPOS>BOND
     1     1     2    1
     2     1    26    1
     3     1    27    1
     4     1    28    1
     5     2    25   ar
     6     2     3   ar
     7     3     4   ar
     8     3    29    1
     9     4     5   ar
    10     5     6    1
    11     5    23   ar
    12     6     7    1
    13     6    30    1
    14     6    31    1
    15     7     8    1
    16     7    32    1
    17     7    33    1
    18     8     9   am
    19     8    34    1
    20     9    10    2
    21     9    11   am
    22    11    22    1
    23    11    12    1
    24    12    13    1
    25    12    35    1
    26    12    36    1
    27    13    14    1
    28    13    37    1
    29    13    38    1
    30    14    15    1
    31    14    39    1
    32    14    40    1
    33    15    21    1
    34    15    16    1
    35    15    22    1
    36    16    17    1
    37    16    41    1
    38    16    42    1
    39    17    18    1
    40    17    43    1
    41    17    44    1
    42    18    19    2
    43    18    20    2
    44    18    21    1
    45    21    45    1
    46    21    46    1
    47    22    47    1
    48    22    48    1
    49    23    24    1
    50    23    25   ar
    51    24    49    1
    52    24    50    1
    53    24    51    1
    54    25    52    1
@<TRIPOS>SUBSTRUCTURE
     1 ZINC000654672208        1 TEMP              0 ****  ****    0 ROOT


##########                                Name:    ZINC001284642199
##########                DOCK_Rotatable_Bonds:                   8
##########                         Heavy_Atoms:                  25
##########                    Molecular_Weight:             346.516
##########                DOCK_Rotatable_Bonds:                   8
##########                       Formal_Charge:         -3.8743e-07
##########                     HBond_Acceptors:                   5
##########                        HBond_Donors:                   2
##########                         Heavy_Atoms:                  25
##########                          Grid_Score:          -29.613646
##########                     Grid_vdw_energy:          -29.054522
##########                      Grid_es_energy:           -0.559125
##########           Internal_energy_repulsive:           22.388582

@<TRIPOS>MOLECULE
ZINC001284642199
 59 60 1 0 0
SMALL
USER_CHARGES


@<TRIPOS>ATOM
      1 C1         -8.3068    2.2412   52.3450 C.3     1  ZINC001284642199   -0.1100
      2 C2         -9.1472    0.9974   52.4775 C.ar    1  ZINC001284642199   -0.1900
      3 C3        -10.4952    1.0815   52.7886 C.ar    1  ZINC001284642199    0.1500
      4 N4        -11.2017   -0.0323   52.8962 N.ar    1  ZINC001284642199   -0.4900
      5 C5        -10.6386   -1.2096   52.7116 C.ar    1  ZINC001284642199    0.3100
      6 C6        -11.4791   -2.4534   52.8441 C.3     1  ZINC001284642199    0.1300
      7 N7        -11.3972   -2.9552   54.2222 N.3     1  ZINC001284642199   -0.6800
      8 C8        -11.9160   -1.9647   55.1748 C.3     1  ZINC001284642199    0.0500
      9 C9        -12.2980   -2.6643   56.4808 C.3     1  ZINC001284642199    0.1600
     10 H10       -11.7565   -3.6071   56.5597 H       1  ZINC001284642199    0.1000
     11 N11       -11.9501   -1.8049   57.6150 N.am    1  ZINC001284642199   -0.7200
     12 C12       -11.0548   -2.2262   58.5301 C.2     1  ZINC001284642199    0.5200
     13 O13       -10.5359   -3.3163   58.4137 O.2     1  ZINC001284642199   -0.5300
     14 C14       -10.6983   -1.3429   59.6979 C.3     1  ZINC001284642199   -0.1100
     15 H15       -10.0809   -1.9019   60.4011 H       1  ZINC001284642199    0.0900
     16 C16        -9.9228   -0.1230   59.1964 C.3     1  ZINC001284642199   -0.1000
     17 C17        -9.5609    0.7739   60.3820 C.3     1  ZINC001284642199   -0.1100
     18 C18       -10.8408    1.2354   61.0818 C.3     1  ZINC001284642199   -0.0900
     19 H19       -11.4581    1.7944   60.3786 H       1  ZINC001284642199    0.0700
     20 C20       -10.4788    2.1322   62.2675 C.3     1  ZINC001284642199   -0.1500
     21 C21       -11.6162    0.0155   61.5832 C.3     1  ZINC001284642199   -0.1100
     22 C22       -11.9782   -0.8813   60.3977 C.3     1  ZINC001284642199   -0.1100
     23 C23       -13.8032   -2.9382   56.4913 C.3     1  ZINC001284642199   -0.0800
     24 C24       -14.2104   -3.5998   55.1732 C.3     1  ZINC001284642199   -0.1400
     25 C25       -14.1439   -3.8699   57.6562 C.3     1  ZINC001284642199   -0.1400
     26 C26       -14.5605   -1.6189   56.6551 C.3     1  ZINC001284642199   -0.1300
     27 N27        -9.3589   -1.3282   52.4195 N.ar    1  ZINC001284642199   -0.5100
     28 C28        -8.5909   -0.2582   52.2906 C.ar    1  ZINC001284642199    0.1500
     29 H29        -7.8761    2.4936   53.3140 H       1  ZINC001284642199    0.0800
     30 H30        -7.5064    2.0641   51.6267 H       1  ZINC001284642199    0.0700
     31 H31        -8.9300    3.0656   51.9986 H       1  ZINC001284642199    0.0700
     32 H32       -10.9626    2.0430   52.9414 H       1  ZINC001284642199    0.1700
     33 H33       -11.1108   -3.2156   52.1574 H       1  ZINC001284642199    0.1000
     34 H34       -12.5160   -2.2184   52.6039 H       1  ZINC001284642199    0.0600
     35 H35       -10.4518   -3.2202   54.4550 H       1  ZINC001284642199    0.3400
     36 H36       -12.7957   -1.4796   54.7517 H       1  ZINC001284642199    0.0900
     37 H37       -11.1492   -1.2162   55.3745 H       1  ZINC001284642199    0.0400
     38 H38       -12.3641   -0.9326   57.7075 H       1  ZINC001284642199    0.3900
     39 H39       -10.5401    0.4360   58.4932 H       1  ZINC001284642199    0.0700
     40 H40        -9.0110   -0.4516   58.6978 H       1  ZINC001284642199    0.0700
     41 H41        -9.0085    1.6430   60.0248 H       1  ZINC001284642199    0.0700
     42 H42        -8.9436    0.2149   61.0853 H       1  ZINC001284642199    0.0600
     43 H43        -9.9264    3.0013   61.9102 H       1  ZINC001284642199    0.0500
     44 H44       -11.3906    2.4610   62.7660 H       1  ZINC001284642199    0.0500
     45 H45        -9.8616    1.5732   62.9707 H       1  ZINC001284642199    0.0500
     46 H46       -10.9989   -0.5435   62.2865 H       1  ZINC001284642199    0.0600
     47 H47       -12.5280    0.3442   62.0818 H       1  ZINC001284642199    0.0700
     48 H48       -12.5955   -0.3223   59.6944 H       1  ZINC001284642199    0.0700
     49 H49       -12.5305   -1.7505   60.7548 H       1  ZINC001284642199    0.0600
     50 H50       -13.6708   -4.5397   55.0566 H       1  ZINC001284642199    0.0600
     51 H51       -15.2828   -3.7949   55.1807 H       1  ZINC001284642199    0.0600
     52 H52       -13.9677   -2.9360   54.3434 H       1  ZINC001284642199    0.0500
     53 H53       -13.8539   -3.3986   58.5952 H       1  ZINC001284642199    0.0600
     54 H54       -15.2163   -4.0651   57.6637 H       1  ZINC001284642199    0.0600
     55 H55       -13.6044   -4.8098   57.5395 H       1  ZINC001284642199    0.0600
     56 H56       -14.3178   -0.9553   55.8253 H       1  ZINC001284642199    0.0500
     57 H57       -15.6329   -1.8141   56.6626 H       1  ZINC001284642199    0.0500
     58 H58       -14.2705   -1.1477   57.5942 H       1  ZINC001284642199    0.0600
     59 H59        -7.5437   -0.3622   52.0474 H       1  ZINC001284642199    0.1700
@<TRIPOS>BOND
     1     1     2    1
     2     1    29    1
     3     1    30    1
     4     1    31    1
     5     2    28   ar
     6     2     3   ar
     7     3     4   ar
     8     3    32    1
     9     4     5   ar
    10     5     6    1
    11     5    27   ar
    12     6     7    1
    13     6    33    1
    14     6    34    1
    15     7     8    1
    16     7    35    1
    17     8     9    1
    18     8    36    1
    19     8    37    1
    20     9    10    1
    21     9    11    1
    22     9    23    1
    23    11    12   am
    24    11    38    1
    25    12    13    2
    26    12    14    1
    27    14    15    1
    28    14    22    1
    29    14    16    1
    30    16    17    1
    31    16    39    1
    32    16    40    1
    33    17    18    1
    34    17    41    1
    35    17    42    1
    36    18    19    1
    37    18    20    1
    38    18    21    1
    39    20    43    1
    40    20    44    1
    41    20    45    1
    42    21    22    1
    43    21    46    1
    44    21    47    1
    45    22    48    1
    46    22    49    1
    47    23    24    1
    48    23    25    1
    49    23    26    1
    50    24    50    1
    51    24    51    1
    52    24    52    1
    53    25    53    1
    54    25    54    1
    55    25    55    1
    56    26    56    1
    57    26    57    1
    58    26    58    1
    59    27    28   ar
    60    28    59    1
@<TRIPOS>SUBSTRUCTURE
     1 ZINC001284642199        1 TEMP              0 ****  ****    0 ROOT


##########                                Name:    ZINC001401207732
##########                DOCK_Rotatable_Bonds:                   8
##########                         Heavy_Atoms:                  23
##########                    Molecular_Weight:             337.446
##########                DOCK_Rotatable_Bonds:                   8
##########                       Formal_Charge:          -0.0199995
##########                     HBond_Acceptors:                   8
##########                        HBond_Donors:                   1
##########                         Heavy_Atoms:                  23
##########                          Grid_Score:          -29.607639
##########                     Grid_vdw_energy:          -29.411888
##########                      Grid_es_energy:           -0.195751
##########           Internal_energy_repulsive:          107.979218

@<TRIPOS>MOLECULE
ZINC001401207732
 46 47 1 0 0
SMALL
USER_CHARGES


@<TRIPOS>ATOM
      1 C1        -11.3034   -1.7115   54.5352 C.3     1  ZINC001401207732   -0.0900
      2 C2        -12.0117   -0.7994   53.5669 C.2     1  ZINC001401207732    0.1500
      3 C3        -11.3607   -0.0937   52.6084 C.2     1  ZINC001401207732   -0.3000
      4 C4         -9.9146   -0.0986   52.3629 C.2     1  ZINC001401207732    0.6100
      5 O5         -9.3614   -1.1221   52.0062 O.2     1  ZINC001401207732   -0.5200
      6 N6         -9.1985    1.0305   52.5324 N.am    1  ZINC001401207732   -0.5900
      7 C7         -9.8645    2.2627   52.9619 C.3     1  ZINC001401207732    0.0700
      8 C8         -7.7542    1.0257   52.2872 C.3     1  ZINC001401207732    0.1400
      9 H9         -7.2300    1.3147   53.1981 H       1  ZINC001401207732    0.1100
     10 C10        -7.3127   -0.3780   51.8682 C.3     1  ZINC001401207732   -0.1600
     11 C11        -7.4229    2.0188   51.1714 C.3     1  ZINC001401207732    0.0500
     12 N12        -5.9664    2.0879   50.9940 N.3     1  ZINC001401207732   -0.6800
     13 C13        -5.5737    3.3488   50.3505 C.3     1  ZINC001401207732    0.1500
     14 C14        -4.0703    3.4358   50.2915 C.2     1  ZINC001401207732    0.1800
     15 N15        -3.3280    4.4266   50.7236 N.2     1  ZINC001401207732   -0.4800
     16 C16        -2.0582    4.0677   50.4635 C.2     1  ZINC001401207732    0.1800
     17 C17        -0.8225    4.8734   50.7718 C.3     1  ZINC001401207732   -0.0100
     18 C18        -0.6552    4.9904   52.2881 C.3     1  ZINC001401207732   -0.1500
     19 C19         0.4024    4.1769   50.1758 C.3     1  ZINC001401207732   -0.1500
     20 N20        -2.0925    2.8986   49.8971 N.2     1  ZINC001401207732   -0.3800
     21 O21        -3.2387    2.5154   49.7943 O.3     1  ZINC001401207732    0.0900
     22 S22       -12.5629    0.8356   51.7162 S.3     1  ZINC001401207732    0.1800
     23 C23       -13.8048    0.1876   52.6961 C.2     1  ZINC001401207732    0.0100
     24 N24       -13.3087   -0.6201   53.5775 N.2     1  ZINC001401207732   -0.4800
     25 H25       -11.0184   -1.1476   55.4233 H       1  ZINC001401207732    0.0800
     26 H26       -11.9692   -2.5262   54.8201 H       1  ZINC001401207732    0.0800
     27 H27       -10.4105   -2.1205   54.0623 H       1  ZINC001401207732    0.1000
     28 H28       -10.2878    2.7685   52.0939 H       1  ZINC001401207732    0.0600
     29 H29       -10.6612    2.0192   53.6648 H       1  ZINC001401207732    0.0800
     30 H30        -9.1401    2.9174   53.4462 H       1  ZINC001401207732    0.0900
     31 H31        -6.2381   -0.3816   51.6858 H       1  ZINC001401207732    0.0700
     32 H32        -7.5486   -1.0855   52.6632 H       1  ZINC001401207732    0.0700
     33 H33        -7.8368   -0.6670   50.9573 H       1  ZINC001401207732    0.0600
     34 H34        -7.8037    3.0048   51.4378 H       1  ZINC001401207732    0.0800
     35 H35        -7.8870    1.6891   50.2419 H       1  ZINC001401207732    0.0500
     36 H36        -5.6278    1.2942   50.4709 H       1  ZINC001401207732    0.3600
     37 H37        -5.9638    4.1877   50.9268 H       1  ZINC001401207732    0.1100
     38 H38        -5.9795    3.3825   49.3394 H       1  ZINC001401207732    0.0800
     39 H39        -0.9207    5.8691   50.3392 H       1  ZINC001401207732    0.1000
     40 H40         0.2386    5.5731   52.5111 H       1  ZINC001401207732    0.0700
     41 H41        -1.5278    5.4866   52.7128 H       1  ZINC001401207732    0.0600
     42 H42        -0.5569    3.9947   52.7207 H       1  ZINC001401207732    0.0600
     43 H43         0.2832    4.0935   49.0955 H       1  ZINC001401207732    0.0600
     44 H44         1.2961    4.7596   50.3987 H       1  ZINC001401207732    0.0700
     45 H45         0.5006    3.1812   50.6083 H       1  ZINC001401207732    0.0600
     46 H46       -14.8542    0.4226   52.5970 H       1  ZINC001401207732    0.2000
@<TRIPOS>BOND
     1     1     2    1
     2     1    25    1
     3     1    26    1
     4     1    27    1
     5     2    24    1
     6     2     3    2
     7     3     4    1
     8     3    22    1
     9     4     5    2
    10     4     6   am
    11     6     7    1
    12     6     8    1
    13     7    28    1
    14     7    29    1
    15     7    30    1
    16     8     9    1
    17     8    10    1
    18     8    11    1
    19    10    31    1
    20    10    32    1
    21    10    33    1
    22    11    12    1
    23    11    34    1
    24    11    35    1
    25    12    13    1
    26    12    36    1
    27    13    14    1
    28    13    37    1
    29    13    38    1
    30    14    21    1
    31    14    15    2
    32    15    16    1
    33    16    17    1
    34    16    20    2
    35    17    18    1
    36    17    19    1
    37    17    39    1
    38    18    40    1
    39    18    41    1
    40    18    42    1
    41    19    43    1
    42    19    44    1
    43    19    45    1
    44    20    21    1
    45    22    23    1
    46    23    24    2
    47    23    46    1
@<TRIPOS>SUBSTRUCTURE
     1 ZINC001401207732        1 TEMP              0 ****  ****    0 ROOT


##########                                Name:    ZINC000787750060
##########                DOCK_Rotatable_Bonds:                   6
##########                         Heavy_Atoms:                  24
##########                    Molecular_Weight:             347.438
##########                DOCK_Rotatable_Bonds:                   6
##########                       Formal_Charge:           0.0200003
##########                     HBond_Acceptors:                   7
##########                        HBond_Donors:                   2
##########                         Heavy_Atoms:                  24
##########                          Grid_Score:          -29.590076
##########                     Grid_vdw_energy:          -29.528490
##########                      Grid_es_energy:           -0.061587
##########           Internal_energy_repulsive:            6.882522

@<TRIPOS>MOLECULE
ZINC000787750060
 45 47 1 0 0
SMALL
USER_CHARGES


@<TRIPOS>ATOM
      1 C1        -10.4912    1.3999   57.0396 C.3     1  ZINC000787750060   -0.1200
      2 C2         -9.7561    1.3125   55.7269 C.ar    1  ZINC000787750060   -0.0400
      3 C3         -8.5409    1.9591   55.5739 C.ar    1  ZINC000787750060   -0.1300
      4 C4         -7.8600    1.8860   54.3779 C.ar    1  ZINC000787750060   -0.0700
      5 C5         -8.3966    1.1565   53.3145 C.ar    1  ZINC000787750060   -0.1700
      6 C6         -7.6728    1.0736   52.0315 C.2     1  ZINC000787750060    0.5600
      7 O7         -7.3364   -0.0090   51.5921 O.2     1  ZINC000787750060   -0.5200
      8 N8         -7.3846    2.1980   51.3466 N.am    1  ZINC000787750060   -0.7300
      9 C9         -6.6644    2.1158   50.0735 C.3     1  ZINC000787750060    0.2100
     10 C10        -5.1955    2.3545   50.3110 C.2     1  ZINC000787750060   -0.2800
     11 C11        -4.3195    2.8017   49.4109 C.2     1  ZINC000787750060    0.0900
     12 N12        -3.0843    2.9289   49.8621 N.2     1  ZINC000787750060   -0.5200
     13 C13        -2.8775    2.6095   51.1019 C.2     1  ZINC000787750060    0.2300
     14 N14        -1.6520    2.6790   51.7459 N.3     1  ZINC000787750060   -0.4500
     15 C15        -1.4944    3.9647   52.4411 C.3     1  ZINC000787750060    0.0200
     16 C16        -0.1569    3.9752   53.1861 C.3     1  ZINC000787750060    0.0600
     17 O17         0.9023    3.7284   52.2574 O.3     1  ZINC000787750060   -0.3800
     18 C18         0.7808    2.4842   51.5629 C.3     1  ZINC000787750060    0.0600
     19 C19        -0.5472    2.4586   50.8014 C.3     1  ZINC000787750060    0.0300
     20 S20        -4.3382    2.0986   51.8286 S.3     1  ZINC000787750060    0.1700
     21 C21        -9.6266    0.5032   53.4734 C.ar    1  ZINC000787750060    0.1700
     22 O22       -10.1578   -0.2083   52.4477 O.3     1  ZINC000787750060   -0.4700
     23 C23       -10.2956    0.5835   54.6853 C.ar    1  ZINC000787750060   -0.1200
     24 C24       -11.6183   -0.1165   54.8626 C.3     1  ZINC000787750060   -0.1200
     25 H25       -10.1757    0.5824   57.6878 H       1  ZINC000787750060    0.0800
     26 H26       -10.2654    2.3521   57.5197 H       1  ZINC000787750060    0.0700
     27 H27       -11.5641    1.3285   56.8607 H       1  ZINC000787750060    0.0800
     28 H28        -8.1250    2.5234   56.3955 H       1  ZINC000787750060    0.1300
     29 H29        -6.9129    2.3922   54.2629 H       1  ZINC000787750060    0.1300
     30 H30        -7.6540    3.0616   51.6965 H       1  ZINC000787750060    0.4000
     31 H31        -6.8061    1.1262   49.6391 H       1  ZINC000787750060    0.0900
     32 H32        -7.0492    2.8715   49.3888 H       1  ZINC000787750060    0.0800
     33 H33        -4.5972    3.0407   48.3949 H       1  ZINC000787750060    0.1800
     34 H34        -1.5123    4.7763   51.7138 H       1  ZINC000787750060    0.0600
     35 H35        -2.3088    4.0955   53.1536 H       1  ZINC000787750060    0.1000
     36 H36        -0.0097    4.9476   53.6561 H       1  ZINC000787750060    0.1100
     37 H37        -0.1596    3.1977   53.9501 H       1  ZINC000787750060    0.0700
     38 H38         1.6061    2.3782   50.8587 H       1  ZINC000787750060    0.1100
     39 H39         0.8052    1.6633   52.2795 H       1  ZINC000787750060    0.0600
     40 H40        -0.6703    1.4900   50.3169 H       1  ZINC000787750060    0.1000
     41 H41        -0.5500    3.2461   50.0478 H       1  ZINC000787750060    0.0700
     42 H42       -10.9308   -0.7350   52.6932 H       1  ZINC000787750060    0.4000
     43 H43       -11.4475   -1.1279   55.2315 H       1  ZINC000787750060    0.0700
     44 H44       -12.2274    0.4338   55.5797 H       1  ZINC000787750060    0.0700
     45 H45       -12.1367   -0.1618   53.9048 H       1  ZINC000787750060    0.0800
@<TRIPOS>BOND
     1     1     2    1
     2     1    25    1
     3     1    26    1
     4     1    27    1
     5     2    23   ar
     6     2     3   ar
     7     3     4   ar
     8     3    28    1
     9     4     5   ar
    10     4    29    1
    11     5     6    1
    12     5    21   ar
    13     6     7    2
    14     6     8   am
    15     8     9    1
    16     8    30    1
    17     9    10    1
    18     9    31    1
    19     9    32    1
    20    10    20    1
    21    10    11    2
    22    11    12    1
    23    11    33    1
    24    12    13    2
    25    13    14    1
    26    13    20    1
    27    14    19    1
    28    14    15    1
    29    15    16    1
    30    15    34    1
    31    15    35    1
    32    16    17    1
    33    16    36    1
    34    16    37    1
    35    17    18    1
    36    18    19    1
    37    18    38    1
    38    18    39    1
    39    19    40    1
    40    19    41    1
    41    21    22    1
    42    21    23   ar
    43    22    42    1
    44    23    24    1
    45    24    43    1
    46    24    44    1
    47    24    45    1
@<TRIPOS>SUBSTRUCTURE
     1 ZINC000787750060        1 TEMP              0 ****  ****    0 ROOT


##########                                Name:    ZINC001060733018
##########                DOCK_Rotatable_Bonds:                   7
##########                         Heavy_Atoms:                  24
##########                    Molecular_Weight:             342.429
##########                DOCK_Rotatable_Bonds:                   7
##########                       Formal_Charge:           0.0200001
##########                     HBond_Acceptors:                   6
##########                        HBond_Donors:                   2
##########                         Heavy_Atoms:                  24
##########                          Grid_Score:          -29.588522
##########                     Grid_vdw_energy:          -29.145535
##########                      Grid_es_energy:           -0.442987
##########           Internal_energy_repulsive:            8.075453

@<TRIPOS>MOLECULE
ZINC001060733018
 52 54 1 0 0
SMALL
USER_CHARGES


@<TRIPOS>ATOM
      1 O1         -4.2213    3.8048   51.6249 O.2     1  ZINC001060733018   -0.5000
      2 C2         -4.0572    2.8989   50.8355 C.2     1  ZINC001060733018    0.4700
      3 N3         -5.1066    2.4052   50.1487 N.am    1  ZINC001060733018   -0.7100
      4 C4         -6.4460    2.9602   50.3587 C.3     1  ZINC001060733018    0.1200
      5 C5         -7.1250    2.2290   51.5184 C.3     1  ZINC001060733018   -0.1000
      6 H6         -6.5178    2.3313   52.4178 H       1  ZINC001060733018    0.0800
      7 C7         -8.5077    2.8362   51.7646 C.3     1  ZINC001060733018   -0.1100
      8 C8         -9.1866    2.1049   52.9244 C.3     1  ZINC001060733018   -0.1300
      9 C9         -9.3354    0.6226   52.5754 C.3     1  ZINC001060733018    0.1400
     10 H10        -9.9426    0.5203   51.6760 H       1  ZINC001060733018    0.0900
     11 N11        -9.9856   -0.0776   53.6859 N.am    1  ZINC001060733018   -0.7300
     12 C12       -10.6338   -1.2382   53.4637 C.2     1  ZINC001060733018    0.5200
     13 O13       -10.6775   -1.7036   52.3446 O.2     1  ZINC001060733018   -0.5400
     14 C14       -11.3041   -1.9575   54.6057 C.3     1  ZINC001060733018   -0.1000
     15 H15       -10.7140   -2.8316   54.8810 H       1  ZINC001060733018    0.1000
     16 C16       -12.7038   -2.4012   54.1775 C.3     1  ZINC001060733018   -0.1100
     17 C17       -13.3633   -3.1965   55.3051 C.3     1  ZINC001060733018   -0.1200
     18 C18       -13.5388   -2.2945   56.5306 C.3     1  ZINC001060733018   -0.0800
     19 C19       -12.1722   -1.7303   56.9305 C.3     1  ZINC001060733018   -0.1300
     20 C20       -11.3523   -2.5148   57.9545 C.3     1  ZINC001060733018   -0.1700
     21 C21       -12.0127   -1.1929   58.3521 C.3     1  ZINC001060733018   -0.1700
     22 C22       -11.4134   -1.0155   55.8086 C.3     1  ZINC001060733018   -0.0600
     23 C23        -7.9529    0.0154   52.3291 C.3     1  ZINC001060733018   -0.1200
     24 C24        -7.2738    0.7467   51.1694 C.3     1  ZINC001060733018   -0.1100
     25 C25        -2.6792    2.3291   50.6181 C.3     1  ZINC001060733018    0.2600
     26 F26        -2.0419    3.0300   49.5886 F       1  ZINC001060733018   -0.1700
     27 F27        -1.9334    2.4498   51.7957 F       1  ZINC001060733018   -0.1900
     28 H28        -4.9750    1.6824   49.5153 H       1  ZINC001060733018    0.4100
     29 H29        -6.3666    4.0214   50.5949 H       1  ZINC001060733018    0.0800
     30 H30        -7.0382    2.8331   49.4524 H       1  ZINC001060733018    0.0800
     31 H31        -8.4016    3.8921   52.0132 H       1  ZINC001060733018    0.0700
     32 H32        -9.1148    2.7338   50.8652 H       1  ZINC001060733018    0.0700
     33 H33       -10.1716    2.5374   53.0998 H       1  ZINC001060733018    0.0700
     34 H34        -8.5794    2.2072   53.8237 H       1  ZINC001060733018    0.0600
     35 H35        -9.9496    0.2941   54.5812 H       1  ZINC001060733018    0.4000
     36 H36       -13.3088   -1.5232   53.9515 H       1  ZINC001060733018    0.0700
     37 H37       -12.6290   -3.0282   53.2891 H       1  ZINC001060733018    0.0700
     38 H38       -14.3384   -3.5547   54.9750 H       1  ZINC001060733018    0.0700
     39 H39       -12.7334   -4.0467   55.5668 H       1  ZINC001060733018    0.0700
     40 H40       -14.2149   -1.4749   56.2870 H       1  ZINC001060733018    0.0700
     41 H41       -13.9495   -2.8757   57.3561 H       1  ZINC001060733018    0.0700
     42 H42       -11.7863   -3.4332   58.3498 H       1  ZINC001060733018    0.0900
     43 H43       -10.2689   -2.5202   57.8343 H       1  ZINC001060733018    0.0900
     44 H44       -11.3638   -0.3286   58.4936 H       1  ZINC001060733018    0.0900
     45 H45       -12.8813   -1.2413   59.0089 H       1  ZINC001060733018    0.0900
     46 H46       -10.4150   -0.7488   56.1554 H       1  ZINC001060733018    0.0700
     47 H47       -11.9539   -0.1144   55.5188 H       1  ZINC001060733018    0.0800
     48 H48        -8.0588   -1.0406   52.0806 H       1  ZINC001060733018    0.0700
     49 H49        -7.3456    0.1177   53.2286 H       1  ZINC001060733018    0.0700
     50 H50        -7.8810    0.6443   50.2700 H       1  ZINC001060733018    0.0700
     51 H51        -6.2888    0.3141   50.9940 H       1  ZINC001060733018    0.0700
     52 H52        -2.7599    1.2768   50.3455 H       1  ZINC001060733018    0.1400
@<TRIPOS>BOND
     1     1     2    2
     2     2     3   am
     3     2    25    1
     4     3     4    1
     5     3    28    1
     6     4     5    1
     7     4    29    1
     8     4    30    1
     9     5     6    1
    10     5    24    1
    11     5     7    1
    12     7     8    1
    13     7    31    1
    14     7    32    1
    15     8     9    1
    16     8    33    1
    17     8    34    1
    18     9    10    1
    19     9    11    1
    20     9    23    1
    21    11    12   am
    22    11    35    1
    23    12    13    2
    24    12    14    1
    25    14    15    1
    26    14    22    1
    27    14    16    1
    28    16    17    1
    29    16    36    1
    30    16    37    1
    31    17    18    1
    32    17    38    1
    33    17    39    1
    34    18    19    1
    35    18    40    1
    36    18    41    1
    37    19    21    1
    38    19    20    1
    39    19    22    1
    40    20    21    1
    41    20    42    1
    42    20    43    1
    43    21    44    1
    44    21    45    1
    45    22    46    1
    46    22    47    1
    47    23    24    1
    48    23    48    1
    49    23    49    1
    50    24    50    1
    51    24    51    1
    52    25    26    1
    53    25    27    1
    54    25    52    1
@<TRIPOS>SUBSTRUCTURE
     1 ZINC001060733018        1 TEMP              0 ****  ****    0 ROOT


##########                                Name:    ZINC000081577146
##########                DOCK_Rotatable_Bonds:                   4
##########                         Heavy_Atoms:                  25
##########                    Molecular_Weight:             355.464
##########                DOCK_Rotatable_Bonds:                   4
##########                       Formal_Charge:                0.02
##########                     HBond_Acceptors:                   7
##########                        HBond_Donors:                   0
##########                         Heavy_Atoms:                  25
##########                          Grid_Score:          -29.565485
##########                     Grid_vdw_energy:          -28.652977
##########                      Grid_es_energy:           -0.912508
##########           Internal_energy_repulsive:           17.393970

@<TRIPOS>MOLECULE
ZINC000081577146
 46 49 1 0 0
SMALL
USER_CHARGES


@<TRIPOS>ATOM
      1 C1        -14.5945   -6.5228   56.0871 C.3     1  ZINC000081577146   -0.0700
      2 C2        -14.4382   -5.0664   56.4418 C.2     1  ZINC000081577146    0.2900
      3 N3        -15.2610   -4.1708   55.9792 N.2     1  ZINC000081577146   -0.4800
      4 S4        -14.7319   -2.6859   56.6144 S.3     1  ZINC000081577146    0.1900
      5 C5        -13.4097   -3.3707   57.4815 C.2     1  ZINC000081577146    0.2700
      6 N6        -12.4882   -2.7086   58.2725 N.3     1  ZINC000081577146   -0.4300
      7 C7        -12.4353   -1.2793   57.9354 C.3     1  ZINC000081577146    0.0700
      8 C8        -11.4656   -0.5699   58.8834 C.3     1  ZINC000081577146    0.0500
      9 N9        -10.1356   -1.1844   58.7695 N.3     1  ZINC000081577146   -0.5200
     10 C10        -9.1570   -0.4813   59.6096 C.3     1  ZINC000081577146    0.1900
     11 H11        -8.2183   -1.0353   59.6153 H       1  ZINC000081577146    0.0700
     12 C12        -9.6947   -0.3745   61.0381 C.3     1  ZINC000081577146   -0.1500
     13 C13        -8.9213    0.9007   59.0570 C.2     1  ZINC000081577146    0.1900
     14 N14        -9.5686    1.9765   59.4078 N.2     1  ZINC000081577146   -0.4500
     15 C15        -9.0914    3.0178   58.7097 C.2     1  ZINC000081577146   -0.0200
     16 C16        -8.1089    2.5499   57.8979 C.2     1  ZINC000081577146    0.0000
     17 C17        -7.2997    3.3416   56.9474 C.ar    1  ZINC000081577146   -0.0200
     18 C18        -7.5088    4.7161   56.8243 C.ar    1  ZINC000081577146   -0.1000
     19 C19        -6.7498    5.4493   55.9356 C.ar    1  ZINC000081577146   -0.1200
     20 C20        -5.7836    4.8249   55.1670 C.ar    1  ZINC000081577146   -0.1100
     21 C21        -5.5716    3.4627   55.2839 C.ar    1  ZINC000081577146   -0.1100
     22 C22        -6.3194    2.7189   56.1732 C.ar    1  ZINC000081577146   -0.0900
     23 O23        -8.0088    1.2225   58.1299 O.3     1  ZINC000081577146   -0.2000
     24 C24       -10.1885   -2.6139   59.1066 C.3     1  ZINC000081577146    0.0600
     25 C25       -11.1583   -3.3233   58.1586 C.3     1  ZINC000081577146    0.0500
     26 N26       -13.4707   -4.6617   57.2315 N.2     1  ZINC000081577146   -0.5400
     27 H27       -15.2425   -7.0071   56.8176 H       1  ZINC000081577146    0.0900
     28 H28       -15.0370   -6.6097   55.0948 H       1  ZINC000081577146    0.0900
     29 H29       -13.6169   -7.0050   56.0925 H       1  ZINC000081577146    0.0900
     30 H30       -12.0917   -1.1605   56.9078 H       1  ZINC000081577146    0.0700
     31 H31       -13.4293   -0.8442   58.0394 H       1  ZINC000081577146    0.1100
     32 H32       -11.4027    0.4851   58.6167 H       1  ZINC000081577146    0.1000
     33 H33       -11.8237   -0.6654   59.9084 H       1  ZINC000081577146    0.0600
     34 H34       -10.6333    0.1796   61.0325 H       1  ZINC000081577146    0.0800
     35 H35        -9.8652   -1.3741   61.4379 H       1  ZINC000081577146    0.0800
     36 H36        -8.9686    0.1472   61.6615 H       1  ZINC000081577146    0.0700
     37 H37        -9.4276    4.0417   58.7805 H       1  ZINC000081577146    0.1900
     38 H38        -8.2632    5.2046   57.4231 H       1  ZINC000081577146    0.1300
     39 H39        -6.9106    6.5130   55.8393 H       1  ZINC000081577146    0.1300
     40 H40        -5.1924    5.4034   54.4726 H       1  ZINC000081577146    0.1300
     41 H41        -4.8162    2.9813   54.6805 H       1  ZINC000081577146    0.1300
     42 H42        -6.1527    1.6558   56.2638 H       1  ZINC000081577146    0.1300
     43 H43        -9.1946   -3.0490   59.0026 H       1  ZINC000081577146    0.0900
     44 H44       -10.5322   -2.7327   60.1342 H       1  ZINC000081577146    0.0500
     45 H45       -11.2211   -4.3783   58.4253 H       1  ZINC000081577146    0.1000
     46 H46       -10.8001   -3.2277   57.1336 H       1  ZINC000081577146    0.0800
@<TRIPOS>BOND
     1     1     2    1
     2     1    27    1
     3     1    28    1
     4     1    29    1
     5     2    26    1
     6     2     3    2
     7     3     4    1
     8     4     5    1
     9     5     6    1
    10     5    26    2
    11     6    25    1
    12     6     7    1
    13     7     8    1
    14     7    30    1
    15     7    31    1
    16     8     9    1
    17     8    32    1
    18     8    33    1
    19     9    10    1
    20     9    24    1
    21    10    11    1
    22    10    12    1
    23    10    13    1
    24    12    34    1
    25    12    35    1
    26    12    36    1
    27    13    23    1
    28    13    14    2
    29    14    15    1
    30    15    16    2
    31    15    37    1
    32    16    17    1
    33    16    23    1
    34    17    22   ar
    35    17    18   ar
    36    18    19   ar
    37    18    38    1
    38    19    20   ar
    39    19    39    1
    40    20    21   ar
    41    20    40    1
    42    21    22   ar
    43    21    41    1
    44    22    42    1
    45    24    25    1
    46    24    43    1
    47    24    44    1
    48    25    45    1
    49    25    46    1
@<TRIPOS>SUBSTRUCTURE
     1 ZINC000081577146        1 TEMP              0 ****  ****    0 ROOT


##########                                Name:    ZINC000000992968
##########                DOCK_Rotatable_Bonds:                   8
##########                         Heavy_Atoms:                  27
##########                    Molecular_Weight:             384.772
##########                DOCK_Rotatable_Bonds:                   8
##########                       Formal_Charge:           0.0199999
##########                     HBond_Acceptors:                   7
##########                        HBond_Donors:                   0
##########                         Heavy_Atoms:                  27
##########                          Grid_Score:          -29.551273
##########                     Grid_vdw_energy:          -29.810186
##########                      Grid_es_energy:            0.258913
##########           Internal_energy_repulsive:            3.855557

@<TRIPOS>MOLECULE
ZINC000000992968
 40 42 1 0 0
SMALL
USER_CHARGES


@<TRIPOS>ATOM
      1 O1         -5.9995    1.6288   51.4308 O.2     1  ZINC000000992968   -0.4600
      2 C2         -7.0782    1.8786   51.9343 C.2     1  ZINC000000992968    0.5600
      3 O3         -7.4056    1.3430   53.1288 O.3     1  ZINC000000992968   -0.2900
      4 C4         -8.5860    0.6809   53.2279 C.ar    1  ZINC000000992968    0.1200
      5 C5         -8.8498   -0.3948   52.3871 C.ar    1  ZINC000000992968   -0.1300
      6 C6        -10.0454   -1.0693   52.4833 C.ar    1  ZINC000000992968   -0.0400
      7 C7        -10.9969   -0.6711   53.4302 C.ar    1  ZINC000000992968   -0.1600
      8 C8        -12.2746   -1.3879   53.5376 C.2     1  ZINC000000992968    0.4000
      9 O9        -13.2831   -0.9031   53.0696 O.2     1  ZINC000000992968   -0.4200
     10 C10       -12.3324   -2.7256   54.2291 C.3     1  ZINC000000992968    0.0200
     11 O11       -13.2003   -2.6335   55.3895 O.3     1  ZINC000000992968   -0.3300
     12 C12       -12.9202   -3.4440   56.4287 C.2     1  ZINC000000992968    0.5100
     13 O13       -13.3304   -4.5874   56.4349 O.2     1  ZINC000000992968   -0.5000
     14 C14       -12.1146   -2.9424   57.5599 C.ar    1  ZINC000000992968   -0.1300
     15 C15       -12.7215   -2.2100   58.5827 C.ar    1  ZINC000000992968   -0.0500
     16 C16       -11.9638   -1.7448   59.6366 C.ar    1  ZINC000000992968   -0.1200
     17 C17       -10.6034   -2.0022   59.6821 C.ar    1  ZINC000000992968    0.0000
     18 Cl18       -9.6563   -1.4126   61.0121 Cl      1  ZINC000000992968   -0.0500
     19 C19        -9.9958   -2.7284   58.6710 C.ar    1  ZINC000000992968   -0.1200
     20 C20       -10.7436   -3.2036   57.6145 C.ar    1  ZINC000000992968   -0.0400
     21 C21       -10.7261    0.4124   54.2747 C.ar    1  ZINC000000992968   -0.0600
     22 C22        -9.5252    1.0769   54.1739 C.ar    1  ZINC000000992968   -0.1200
     23 C23        -8.0192    2.7656   51.2468 C.2     1  ZINC000000992968   -0.0700
     24 C24        -8.9737    3.5410   51.8429 C.2     1  ZINC000000992968   -0.0900
     25 C25        -9.6408    4.2218   50.8133 C.2     1  ZINC000000992968   -0.2300
     26 C26        -9.0723    3.8378   49.6485 C.2     1  ZINC000000992968    0.0200
     27 O27        -8.0921    2.9650   49.9143 O.3     1  ZINC000000992968   -0.1500
     28 H28        -8.1153   -0.7012   51.6570 H       1  ZINC000000992968    0.1400
     29 H29       -10.2497   -1.9043   51.8294 H       1  ZINC000000992968    0.1500
     30 H30       -12.7246   -3.4739   53.5405 H       1  ZINC000000992968    0.1100
     31 H31       -11.3304   -3.0139   54.5468 H       1  ZINC000000992968    0.1100
     32 H32       -13.7819   -2.0082   58.5478 H       1  ZINC000000992968    0.1500
     33 H33       -12.4319   -1.1784   60.4280 H       1  ZINC000000992968    0.1500
     34 H34        -8.9349   -2.9261   58.7124 H       1  ZINC000000992968    0.1500
     35 H35       -10.2688   -3.7699   56.8270 H       1  ZINC000000992968    0.1500
     36 H36       -11.4569    0.7237   55.0066 H       1  ZINC000000992968    0.1400
     37 H37        -9.3152    1.9126   54.8250 H       1  ZINC000000992968    0.1400
     38 H38        -9.1755    3.6153   52.9012 H       1  ZINC000000992968    0.1700
     39 H39       -10.4553    4.9213   50.9296 H       1  ZINC000000992968    0.1700
     40 H40        -9.3589    4.1814   48.6656 H       1  ZINC000000992968    0.2200
@<TRIPOS>BOND
     1     1     2    2
     2     2     3    1
     3     2    23    1
     4     3     4    1
     5     4    22   ar
     6     4     5   ar
     7     5     6   ar
     8     5    28    1
     9     6     7   ar
    10     6    29    1
    11     7     8    1
    12     7    21   ar
    13     8     9    2
    14     8    10    1
    15    10    11    1
    16    10    30    1
    17    10    31    1
    18    11    12    1
    19    12    13    2
    20    12    14    1
    21    14    20   ar
    22    14    15   ar
    23    15    16   ar
    24    15    32    1
    25    16    17   ar
    26    16    33    1
    27    17    18    1
    28    17    19   ar
    29    19    20   ar
    30    19    34    1
    31    20    35    1
    32    21    22   ar
    33    21    36    1
    34    22    37    1
    35    23    27    1
    36    23    24    2
    37    24    25    1
    38    24    38    1
    39    25    26    2
    40    25    39    1
    41    26    27    1
    42    26    40    1
@<TRIPOS>SUBSTRUCTURE
     1 ZINC000000992968        1 TEMP              0 ****  ****    0 ROOT


##########                                Name:    ZINC000809503567
##########                DOCK_Rotatable_Bonds:                   9
##########                         Heavy_Atoms:                  26
##########                    Molecular_Weight:             353.378
##########                DOCK_Rotatable_Bonds:                   9
##########                       Formal_Charge:          -0.0200002
##########                     HBond_Acceptors:                   7
##########                        HBond_Donors:                   1
##########                         Heavy_Atoms:                  26
##########                          Grid_Score:          -29.550772
##########                     Grid_vdw_energy:          -28.654348
##########                      Grid_es_energy:           -0.896423
##########           Internal_energy_repulsive:            6.434207

@<TRIPOS>MOLECULE
ZINC000809503567
 45 46 1 0 0
SMALL
USER_CHARGES


@<TRIPOS>ATOM
      1 C1        -12.9370    1.9325   51.5870 C.3     1  ZINC000809503567    0.0200
      2 O2        -13.4374    0.5939   51.5980 O.3     1  ZINC000809503567   -0.3100
      3 C3        -12.9259   -0.2473   52.5319 C.ar    1  ZINC000809503567    0.1900
      4 C4        -11.6565   -0.7794   52.3689 C.ar    1  ZINC000809503567   -0.2100
      5 C5        -11.1370   -1.6358   53.3202 C.ar    1  ZINC000809503567   -0.0200
      6 C6        -11.8777   -1.9696   54.4416 C.ar    1  ZINC000809503567   -0.1500
      7 C7        -11.2993   -2.9053   55.4716 C.3     1  ZINC000809503567    0.1700
      8 N8        -11.4179   -2.3016   56.8011 N.am    1  ZINC000809503567   -0.7000
      9 C9        -11.2961   -3.0686   57.9027 C.2     1  ZINC000809503567    0.5100
     10 O10       -11.0896   -4.2593   57.7933 O.2     1  ZINC000809503567   -0.4900
     11 C11       -11.4154   -2.4524   59.2591 C.2     1  ZINC000809503567    0.5100
     12 O12       -12.5100   -2.2847   59.7552 O.2     1  ZINC000809503567   -0.5000
     13 N13       -10.3071   -2.0831   59.9312 N.am    1  ZINC000809503567   -0.4600
     14 C14        -8.9855   -2.2873   59.3331 C.3     1  ZINC000809503567    0.0800
     15 O15       -10.4203   -1.4977   61.2157 O.3     1  ZINC000809503567   -0.1100
     16 C16        -9.9899   -0.1363   61.2740 C.3     1  ZINC000809503567    0.0800
     17 C17        -9.9636    0.3211   62.7096 C.ar    1  ZINC000809503567   -0.0900
     18 C18       -11.0815    0.9133   63.2669 C.ar    1  ZINC000809503567   -0.1000
     19 C19       -11.0574    1.3329   64.5839 C.ar    1  ZINC000809503567   -0.1300
     20 C20        -9.9156    1.1599   65.3437 C.ar    1  ZINC000809503567   -0.1100
     21 C21        -8.7980    0.5669   64.7866 C.ar    1  ZINC000809503567   -0.1300
     22 C22        -8.8235    0.1434   63.4709 C.ar    1  ZINC000809503567   -0.0800
     23 C23       -13.1419   -1.4492   54.6202 C.ar    1  ZINC000809503567   -0.0100
     24 C24       -13.6769   -0.5776   53.6688 C.ar    1  ZINC000809503567   -0.0600
     25 C25       -14.9893   -0.0335   53.8480 C.1     1  ZINC000809503567    0.2600
     26 N26       -16.0305    0.3981   53.9902 N.1     1  ZINC000809503567   -0.4100
     27 H27       -11.8617    1.9169   51.4095 H       1  ZINC000809503567    0.0600
     28 H28       -13.4279    2.4974   50.7945 H       1  ZINC000809503567    0.1100
     29 H29       -13.1398    2.4041   52.5486 H       1  ZINC000809503567    0.0600
     30 H30       -11.0728   -0.5245   51.4967 H       1  ZINC000809503567    0.1400
     31 H31       -10.1473   -2.0477   53.1886 H       1  ZINC000809503567    0.1400
     32 H32       -11.8437   -3.8494   55.4513 H       1  ZINC000809503567    0.0900
     33 H33       -10.2481   -3.0872   55.2476 H       1  ZINC000809503567    0.0900
     34 H34       -11.5842   -1.3500   56.8886 H       1  ZINC000809503567    0.4100
     35 H35        -8.7079   -1.4056   58.7555 H       1  ZINC000809503567    0.0800
     36 H36        -8.2511   -2.4508   60.1219 H       1  ZINC000809503567    0.0800
     37 H37        -9.0139   -3.1573   58.6772 H       1  ZINC000809503567    0.0900
     38 H38        -8.9902   -0.0528   60.8477 H       1  ZINC000809503567    0.0700
     39 H39       -10.6802    0.4877   60.7064 H       1  ZINC000809503567    0.0600
     40 H40       -11.9735    1.0484   62.6734 H       1  ZINC000809503567    0.1200
     41 H41       -11.9305    1.7962   65.0191 H       1  ZINC000809503567    0.1200
     42 H42        -9.8964    1.4884   66.3722 H       1  ZINC000809503567    0.1200
     43 H43        -7.9058    0.4321   65.3801 H       1  ZINC000809503567    0.1200
     44 H44        -7.9504   -0.3199   63.0357 H       1  ZINC000809503567    0.1300
     45 H45       -13.7162   -1.7122   55.4962 H       1  ZINC000809503567    0.1400
@<TRIPOS>BOND
     1     1     2    1
     2     1    27    1
     3     1    28    1
     4     1    29    1
     5     2     3    1
     6     3    24   ar
     7     3     4   ar
     8     4     5   ar
     9     4    30    1
    10     5     6   ar
    11     5    31    1
    12     6     7    1
    13     6    23   ar
    14     7     8    1
    15     7    32    1
    16     7    33    1
    17     8     9   am
    18     8    34    1
    19     9    10    2
    20     9    11    1
    21    11    12    2
    22    11    13   am
    23    13    14    1
    24    13    15    1
    25    14    35    1
    26    14    36    1
    27    14    37    1
    28    15    16    1
    29    16    17    1
    30    16    38    1
    31    16    39    1
    32    17    22   ar
    33    17    18   ar
    34    18    19   ar
    35    18    40    1
    36    19    20   ar
    37    19    41    1
    38    20    21   ar
    39    20    42    1
    40    21    22   ar
    41    21    43    1
    42    22    44    1
    43    23    24   ar
    44    23    45    1
    45    24    25    1
    46    25    26    3
@<TRIPOS>SUBSTRUCTURE
     1 ZINC000809503567        1 TEMP              0 ****  ****    0 ROOT


##########                                Name:    ZINC001011267435
##########                DOCK_Rotatable_Bonds:                   7
##########                         Heavy_Atoms:                  24
##########                    Molecular_Weight:             331.458
##########                DOCK_Rotatable_Bonds:                   7
##########                       Formal_Charge:        -4.47035e-08
##########                     HBond_Acceptors:                   5
##########                        HBond_Donors:                   0
##########                         Heavy_Atoms:                  24
##########                          Grid_Score:          -29.545568
##########                     Grid_vdw_energy:          -29.696104
##########                      Grid_es_energy:            0.150535
##########           Internal_energy_repulsive:           43.846603

@<TRIPOS>MOLECULE
ZINC001011267435
 53 54 1 0 0
SMALL
USER_CHARGES


@<TRIPOS>ATOM
      1 C1        -13.9591   -2.7298   55.8958 C.3     1  ZINC001011267435   -0.1500
      2 C2        -13.0443   -1.8506   56.7508 C.3     1  ZINC001011267435   -0.1200
      3 C3        -11.5855   -2.1111   56.3705 C.3     1  ZINC001011267435   -0.0700
      4 C4        -11.3986   -1.8627   54.8959 C.ar    1  ZINC001011267435    0.1300
      5 C5        -11.0357   -0.6041   54.4578 C.ar    1  ZINC001011267435   -0.1200
      6 C6        -10.8654   -0.3863   53.0870 C.ar    1  ZINC001011267435   -0.0800
      7 C7        -10.4761    0.9465   52.5704 C.2     1  ZINC001011267435    0.5600
      8 O8        -11.2454    1.8826   52.6634 O.2     1  ZINC001011267435   -0.5200
      9 N9         -9.2687    1.1208   51.9974 N.am    1  ZINC001011267435   -0.6100
     10 C10        -8.8668    2.4386   51.4861 C.3     1  ZINC001011267435    0.0700
     11 C11        -7.5381    2.8344   52.1421 C.3     1  ZINC001011267435    0.1000
     12 N12        -6.5998    1.7102   52.0178 N.am    1  ZINC001011267435   -0.6200
     13 C13        -5.3921    1.8846   51.4455 C.2     1  ZINC001011267435    0.5300
     14 O14        -4.6263    0.9491   51.3485 O.2     1  ZINC001011267435   -0.5300
     15 C15        -4.9933    3.2418   50.9262 C.3     1  ZINC001011267435   -0.1100
     16 H16        -5.8194    3.6711   50.3593 H       1  ZINC001011267435    0.0900
     17 C17        -3.7702    3.1012   50.0177 C.3     1  ZINC001011267435   -0.1500
     18 C18        -4.6517    4.1581   52.1029 C.3     1  ZINC001011267435   -0.0800
     19 C19        -3.4019    3.6331   52.8122 C.3     1  ZINC001011267435   -0.1500
     20 C20        -4.3882    5.5742   51.5868 C.3     1  ZINC001011267435   -0.1500
     21 C21        -7.0018    0.3922   52.5291 C.3     1  ZINC001011267435    0.0900
     22 C22        -8.3282   -0.0022   51.8782 C.3     1  ZINC001011267435    0.1000
     23 C23       -11.0723   -1.4613   52.2176 C.ar    1  ZINC001011267435   -0.1600
     24 C24       -11.4340   -2.6873   52.7424 C.ar    1  ZINC001011267435    0.1100
     25 N25       -11.5787   -2.8508   54.0421 N.ar    1  ZINC001011267435   -0.4600
     26 H26       -13.8102   -2.4925   54.8424 H       1  ZINC001011267435    0.0600
     27 H27       -13.7202   -3.7791   56.0692 H       1  ZINC001011267435    0.0500
     28 H28       -14.9984   -2.5441   56.1668 H       1  ZINC001011267435    0.0600
     29 H29       -13.2831   -0.8013   56.5775 H       1  ZINC001011267435    0.0700
     30 H30       -13.1931   -2.0878   57.8043 H       1  ZINC001011267435    0.0600
     31 H31       -10.9374   -1.4421   56.9367 H       1  ZINC001011267435    0.0800
     32 H32       -11.3293   -3.1454   56.6000 H       1  ZINC001011267435    0.0900
     33 H33       -10.8859    0.1999   55.1633 H       1  ZINC001011267435    0.1400
     34 H34        -8.7401    2.3885   50.4046 H       1  ZINC001011267435    0.0800
     35 H35        -9.6307    3.1756   51.7336 H       1  ZINC001011267435    0.1100
     36 H36        -7.1282    3.7102   51.6390 H       1  ZINC001011267435    0.1100
     37 H37        -7.7029    3.0585   53.1960 H       1  ZINC001011267435    0.0700
     38 H38        -3.4315    4.0900   49.7086 H       1  ZINC001011267435    0.0800
     39 H39        -2.9708    2.5963   50.5602 H       1  ZINC001011267435    0.0600
     40 H40        -4.0369    2.5168   49.1371 H       1  ZINC001011267435    0.0600
     41 H41        -5.4866    4.1762   52.8035 H       1  ZINC001011267435    0.0800
     42 H42        -3.1586    4.2859   53.6505 H       1  ZINC001011267435    0.0600
     43 H43        -3.5896    2.6243   53.1798 H       1  ZINC001011267435    0.0600
     44 H44        -2.5671    3.6150   52.1115 H       1  ZINC001011267435    0.0600
     45 H45        -5.2787    5.9482   51.0815 H       1  ZINC001011267435    0.0600
     46 H46        -4.1449    6.2270   52.4251 H       1  ZINC001011267435    0.0600
     47 H47        -3.5534    5.5561   50.8861 H       1  ZINC001011267435    0.0500
     48 H48        -6.2378   -0.3448   52.2816 H       1  ZINC001011267435    0.1000
     49 H49        -7.1284    0.4425   53.6106 H       1  ZINC001011267435    0.0800
     50 H50        -8.7368   -0.8781   52.3821 H       1  ZINC001011267435    0.1100
     51 H51        -8.1660   -0.2262   50.8238 H       1  ZINC001011267435    0.0800
     52 H52       -10.9516   -1.3354   51.1517 H       1  ZINC001011267435    0.1500
     53 H53       -11.5964   -3.5238   52.0788 H       1  ZINC001011267435    0.1700
@<TRIPOS>BOND
     1     1     2    1
     2     1    26    1
     3     1    27    1
     4     1    28    1
     5     2     3    1
     6     2    29    1
     7     2    30    1
     8     3     4    1
     9     3    31    1
    10     3    32    1
    11     4    25   ar
    12     4     5   ar
    13     5     6   ar
    14     5    33    1
    15     6     7    1
    16     6    23   ar
    17     7     8    2
    18     7     9   am
    19     9    22    1
    20     9    10    1
    21    10    11    1
    22    10    34    1
    23    10    35    1
    24    11    12    1
    25    11    36    1
    26    11    37    1
    27    12    13   am
    28    12    21    1
    29    13    14    2
    30    13    15    1
    31    15    16    1
    32    15    17    1
    33    15    18    1
    34    17    38    1
    35    17    39    1
    36    17    40    1
    37    18    19    1
    38    18    20    1
    39    18    41    1
    40    19    42    1
    41    19    43    1
    42    19    44    1
    43    20    45    1
    44    20    46    1
    45    20    47    1
    46    21    22    1
    47    21    48    1
    48    21    49    1
    49    22    50    1
    50    22    51    1
    51    23    24   ar
    52    23    52    1
    53    24    25   ar
    54    24    53    1
@<TRIPOS>SUBSTRUCTURE
     1 ZINC001011267435        1 TEMP              0 ****  ****    0 ROOT


##########                                Name:    ZINC000464752079
##########                DOCK_Rotatable_Bonds:                   7
##########                         Heavy_Atoms:                  29
##########                    Molecular_Weight:             404.413
##########                DOCK_Rotatable_Bonds:                   7
##########                       Formal_Charge:         7.45058e-08
##########                     HBond_Acceptors:                   8
##########                        HBond_Donors:                   1
##########                         Heavy_Atoms:                  29
##########                          Grid_Score:          -29.526810
##########                     Grid_vdw_energy:          -28.873560
##########                      Grid_es_energy:           -0.653249
##########           Internal_energy_repulsive:           14.626815

@<TRIPOS>MOLECULE
ZINC000464752079
 51 54 1 0 0
SMALL
USER_CHARGES


@<TRIPOS>ATOM
      1 C1         -5.8041    1.7107   51.3966 C.3     1  ZINC000464752079   -0.1200
      2 C2         -7.1439    2.3393   51.1120 C.ar    1  ZINC000464752079   -0.0800
      3 C3         -7.3679    2.9713   49.9035 C.ar    1  ZINC000464752079   -0.1200
      4 C4         -8.5971    3.5480   49.6424 C.ar    1  ZINC000464752079   -0.1200
      5 C5         -9.6018    3.4923   50.5898 C.ar    1  ZINC000464752079   -0.1300
      6 C6         -9.3780    2.8594   51.7984 C.ar    1  ZINC000464752079   -0.0900
      7 C7         -8.1506    2.2790   52.0577 C.ar    1  ZINC000464752079   -0.0800
      8 C8         -7.9066    1.5891   53.3751 C.3     1  ZINC000464752079    0.2000
      9 H9         -7.1345    0.8288   53.2577 H       1  ZINC000464752079    0.0900
     10 C10        -7.4695    2.6218   54.4353 C.3     1  ZINC000464752079   -0.1200
     11 C11        -8.1866    2.1266   55.7191 C.3     1  ZINC000464752079   -0.1300
     12 C12        -9.5195    1.5876   55.1425 C.3     1  ZINC000464752079    0.1000
     13 N13        -9.1510    0.9685   53.8525 N.am    1  ZINC000464752079   -0.6300
     14 C14        -9.8427    0.0000   53.2200 C.2     1  ZINC000464752079    0.7200
     15 O15        -9.4433   -0.4378   52.1584 O.2     1  ZINC000464752079   -0.5700
     16 N16       -10.9771   -0.4830   53.7643 N.am    1  ZINC000464752079   -0.7400
     17 C17       -11.7280   -1.5370   53.0776 C.3     1  ZINC000464752079    0.1900
     18 C18       -12.7681   -2.1019   54.0104 C.ar    1  ZINC000464752079   -0.1200
     19 C19       -12.5089   -3.2655   54.7097 C.ar    1  ZINC000464752079   -0.0500
     20 C20       -13.4631   -3.7877   55.5676 C.ar    1  ZINC000464752079    0.0100
     21 C21       -14.6849   -3.1384   55.7254 C.ar    1  ZINC000464752079    0.0800
     22 C22       -14.9420   -1.9716   55.0243 C.ar    1  ZINC000464752079   -0.1800
     23 C23       -13.9821   -1.4504   54.1703 C.ar    1  ZINC000464752079    0.1400
     24 O24       -14.2344   -0.3049   53.4824 O.3     1  ZINC000464752079   -0.3100
     25 C25       -14.6527    0.8300   54.2434 C.3     1  ZINC000464752079    0.4100
     26 F26       -13.8304    0.9669   55.3669 F       1  ZINC000464752079   -0.2000
     27 F27       -14.5591    1.9811   53.4539 F       1  ZINC000464752079   -0.2000
     28 O28       -15.4426   -3.8444   56.6146 O.3     1  ZINC000464752079   -0.3000
     29 C29       -14.8354   -5.1479   56.6879 C.3     1  ZINC000464752079    0.2100
     30 O30       -13.4555   -4.9013   56.3587 O.3     1  ZINC000464752079   -0.3000
     31 H31        -5.8100    0.6743   51.0587 H       1  ZINC000464752079    0.0700
     32 H32        -5.0252    2.2605   50.8684 H       1  ZINC000464752079    0.0700
     33 H33        -5.6082    1.7423   52.4684 H       1  ZINC000464752079    0.0700
     34 H34        -6.5829    3.0148   49.1631 H       1  ZINC000464752079    0.1200
     35 H35        -8.7719    4.0425   48.6982 H       1  ZINC000464752079    0.1200
     36 H36       -10.5618    3.9434   50.3862 H       1  ZINC000464752079    0.1200
     37 H37       -10.1630    2.8161   52.5389 H       1  ZINC000464752079    0.1100
     38 H38        -6.3876    2.6050   54.5671 H       1  ZINC000464752079    0.0900
     39 H39        -7.8106    3.6209   54.1641 H       1  ZINC000464752079    0.0800
     40 H40        -7.6192    1.3306   56.2012 H       1  ZINC000464752079    0.0800
     41 H41        -8.3647    2.9509   56.4097 H       1  ZINC000464752079    0.0900
     42 H42        -9.9478    0.8411   55.8113 H       1  ZINC000464752079    0.0700
     43 H43       -10.2229    2.4052   54.9850 H       1  ZINC000464752079    0.0700
     44 H44       -11.2963   -0.1329   54.6107 H       1  ZINC000464752079    0.4000
     45 H45       -12.2174   -1.1198   52.1975 H       1  ZINC000464752079    0.0800
     46 H46       -11.0450   -2.3296   52.7721 H       1  ZINC000464752079    0.0800
     47 H47       -11.5612   -3.7687   54.5869 H       1  ZINC000464752079    0.1500
     48 H48       -15.8889   -1.4664   55.1453 H       1  ZINC000464752079    0.1500
     49 H49       -15.6854    0.6921   54.5636 H       1  ZINC000464752079    0.1900
     50 H50       -14.9220   -5.5548   57.6954 H       1  ZINC000464752079    0.1400
     51 H51       -15.2879   -5.8226   55.9610 H       1  ZINC000464752079    0.0900
@<TRIPOS>BOND
     1     1     2    1
     2     1    31    1
     3     1    32    1
     4     1    33    1
     5     2     7   ar
     6     2     3   ar
     7     3     4   ar
     8     3    34    1
     9     4     5   ar
    10     4    35    1
    11     5     6   ar
    12     5    36    1
    13     6     7   ar
    14     6    37    1
    15     7     8    1
    16     8     9    1
    17     8    13    1
    18     8    10    1
    19    10    11    1
    20    10    38    1
    21    10    39    1
    22    11    12    1
    23    11    40    1
    24    11    41    1
    25    12    13    1
    26    12    42    1
    27    12    43    1
    28    13    14   am
    29    14    15    2
    30    14    16   am
    31    16    17    1
    32    16    44    1
    33    17    18    1
    34    17    45    1
    35    17    46    1
    36    18    23   ar
    37    18    19   ar
    38    19    20   ar
    39    19    47    1
    40    20    30    1
    41    20    21   ar
    42    21    22   ar
    43    21    28    1
    44    22    23   ar
    45    22    48    1
    46    23    24    1
    47    24    25    1
    48    25    26    1
    49    25    27    1
    50    25    49    1
    51    28    29    1
    52    29    30    1
    53    29    50    1
    54    29    51    1
@<TRIPOS>SUBSTRUCTURE
     1 ZINC000464752079        1 TEMP              0 ****  ****    0 ROOT


##########                                Name:    ZINC000530457945
##########                DOCK_Rotatable_Bonds:                   4
##########                         Heavy_Atoms:                  25
##########                    Molecular_Weight:             355.827
##########                DOCK_Rotatable_Bonds:                   4
##########                       Formal_Charge:           0.0199997
##########                     HBond_Acceptors:                   7
##########                        HBond_Donors:                   1
##########                         Heavy_Atoms:                  25
##########                          Grid_Score:          -29.522533
##########                     Grid_vdw_energy:          -29.220690
##########                      Grid_es_energy:           -0.301844
##########           Internal_energy_repulsive:           31.175194

@<TRIPOS>MOLECULE
ZINC000530457945
 43 46 1 0 0
SMALL
USER_CHARGES


@<TRIPOS>ATOM
      1 C1         -6.3105    0.5844   51.5660 C.3     1  ZINC000530457945   -0.1700
      2 C2         -6.9294    1.5335   52.5941 C.3     1  ZINC000530457945    0.0900
      3 H3         -6.9032    1.0765   53.5833 H       1  ZINC000530457945    0.1100
      4 C4         -8.3873    1.8536   52.2021 C.3     1  ZINC000530457945   -0.1200
      5 H5         -8.5413    1.7024   51.1337 H       1  ZINC000530457945    0.1100
      6 C6         -9.3504    1.0140   53.0013 C.2     1  ZINC000530457945    0.5300
      7 O7         -9.4375    1.1675   54.2011 O.2     1  ZINC000530457945   -0.4700
      8 N8        -10.1149    0.0925   52.3824 N.am    1  ZINC000530457945   -0.6200
      9 C9        -11.0063   -0.6868   53.1232 C.2     1  ZINC000530457945    0.4800
     10 N10       -11.1596   -1.9899   53.0022 N.2     1  ZINC000530457945   -0.3000
     11 N11       -12.1451   -2.3756   53.9221 N.pl3   1  ZINC000530457945   -0.2800
     12 C12       -12.7035   -3.5743   54.2358 C.2     1  ZINC000530457945    0.1400
     13 C13       -13.6597   -3.6595   55.1896 C.2     1  ZINC000530457945   -0.0800
     14 Cl14      -14.3615   -5.1993   55.5768 Cl      1  ZINC000530457945   -0.0200
     15 C15       -14.0851   -2.5065   55.8668 C.2     1  ZINC000530457945   -0.0500
     16 C16       -13.5298   -1.3015   55.5583 C.2     1  ZINC000530457945   -0.0900
     17 C17       -12.5380   -1.2355   54.5636 C.2     1  ZINC000530457945    0.3000
     18 N18       -11.8274   -0.2295   54.0632 N.2     1  ZINC000530457945   -0.5500
     19 C19        -8.5266    3.3543   52.5694 C.3     1  ZINC000530457945   -0.1200
     20 C20        -7.1173    3.8942   52.2198 C.3     1  ZINC000530457945    0.0400
     21 N21        -6.1882    2.8079   52.6104 N.3     1  ZINC000530457945   -0.4900
     22 C22        -5.0877    2.7577   51.7516 C.ar    1  ZINC000530457945    0.1000
     23 C23        -5.2685    2.8846   50.3803 C.ar    1  ZINC000530457945   -0.1600
     24 C24        -4.1781    2.8351   49.5341 C.ar    1  ZINC000530457945   -0.1100
     25 C25        -2.9075    2.6588   50.0507 C.ar    1  ZINC000530457945   -0.1300
     26 C26        -2.7240    2.5322   51.4154 C.ar    1  ZINC000530457945   -0.1100
     27 C27        -3.8093    2.5866   52.2677 C.ar    1  ZINC000530457945   -0.1000
     28 H28        -5.2485    0.4613   51.7783 H       1  ZINC000530457945    0.0700
     29 H29        -6.8067   -0.3846   51.6210 H       1  ZINC000530457945    0.0600
     30 H30        -6.4353    1.0003   50.5662 H       1  ZINC000530457945    0.0600
     31 H31       -10.0461   -0.0294   51.4226 H       1  ZINC000530457945    0.4300
     32 H32       -12.3816   -4.4664   53.7193 H       1  ZINC000530457945    0.1800
     33 H33       -14.8484   -2.5740   56.6278 H       1  ZINC000530457945    0.1600
     34 H34       -13.8483   -0.4063   56.0716 H       1  ZINC000530457945    0.1700
     35 H35        -9.2914    3.8361   51.9604 H       1  ZINC000530457945    0.0900
     36 H36        -8.7398    3.4783   53.6312 H       1  ZINC000530457945    0.0900
     37 H37        -7.0419    4.0937   51.1508 H       1  ZINC000530457945    0.0700
     38 H38        -6.9044    4.7974   52.7913 H       1  ZINC000530457945    0.0900
     39 H39        -6.2605    3.0216   49.9761 H       1  ZINC000530457945    0.1200
     40 H40        -4.3179    2.9336   48.4677 H       1  ZINC000530457945    0.1200
     41 H41        -2.0566    2.6197   49.3867 H       1  ZINC000530457945    0.1200
     42 H42        -1.7303    2.3946   51.8156 H       1  ZINC000530457945    0.1300
     43 H43        -3.6653    2.4879   53.3334 H       1  ZINC000530457945    0.1300
@<TRIPOS>BOND
     1     1     2    1
     2     1    28    1
     3     1    29    1
     4     1    30    1
     5     2     3    1
     6     2    21    1
     7     2     4    1
     8     4     5    1
     9     4     6    1
    10     4    19    1
    11     6     7    2
    12     6     8   am
    13     8     9    1
    14     8    31    1
    15     9    18    1
    16     9    10    2
    17    10    11    1
    18    11    17    1
    19    11    12    1
    20    12    13    2
    21    12    32    1
    22    13    14    1
    23    13    15    1
    24    15    16    2
    25    15    33    1
    26    16    17    1
    27    16    34    1
    28    17    18    2
    29    19    20    1
    30    19    35    1
    31    19    36    1
    32    20    21    1
    33    20    37    1
    34    20    38    1
    35    21    22    1
    36    22    27   ar
    37    22    23   ar
    38    23    24   ar
    39    23    39    1
    40    24    25   ar
    41    24    40    1
    42    25    26   ar
    43    25    41    1
    44    26    27   ar
    45    26    42    1
    46    27    43    1
@<TRIPOS>SUBSTRUCTURE
     1 ZINC000530457945        1 TEMP              0 ****  ****    0 ROOT


##########                                Name:    ZINC001220212140
##########                DOCK_Rotatable_Bonds:                   6
##########                         Heavy_Atoms:                  28
##########                    Molecular_Weight:             379.459
##########                DOCK_Rotatable_Bonds:                   6
##########                       Formal_Charge:         -0.00999925
##########                     HBond_Acceptors:                   6
##########                        HBond_Donors:                   1
##########                         Heavy_Atoms:                  28
##########                          Grid_Score:          -29.492147
##########                     Grid_vdw_energy:          -29.185686
##########                      Grid_es_energy:           -0.306461
##########           Internal_energy_repulsive:           14.392040

@<TRIPOS>MOLECULE
ZINC001220212140
 53 56 1 0 0
SMALL
USER_CHARGES


@<TRIPOS>ATOM
      1 C1         -6.7271    3.0408   50.1589 C.3     1  ZINC001220212140   -0.1700
      2 C2         -5.9541    2.1106   51.0960 C.3     1  ZINC001220212140    0.0800
      3 H3         -4.9477    1.9326   50.7170 H       1  ZINC001220212140    0.1200
      4 C4         -5.9051    2.6930   52.5284 C.3     1  ZINC001220212140   -0.1100
      5 C5         -7.1112    2.0387   53.1744 C.ar    1  ZINC001220212140   -0.1500
      6 C6         -7.8031    2.3173   54.3313 C.ar    1  ZINC001220212140   -0.0700
      7 C7         -8.9000    1.5418   54.6868 C.ar    1  ZINC001220212140    0.1400
      8 N8         -9.6088    1.8209   55.8632 N.am    1  ZINC001220212140   -0.6800
      9 C9         -9.1116    1.4389   57.0562 C.2     1  ZINC001220212140    0.7200
     10 O10        -8.0480    0.8522   57.1119 O.2     1  ZINC001220212140   -0.5700
     11 N11        -9.7931    1.7072   58.1876 N.am    1  ZINC001220212140   -0.6300
     12 C12       -11.0843    2.4063   58.2647 C.3     1  ZINC001220212140    0.0900
     13 C13       -11.4890    2.4581   59.7529 C.3     1  ZINC001220212140   -0.1100
     14 C14       -10.6800    1.2889   60.3741 C.3     1  ZINC001220212140   -0.1300
     15 H15       -11.1914    0.3379   60.2259 H       1  ZINC001220212140    0.1200
     16 C16       -10.4137    1.5335   61.8371 C.2     1  ZINC001220212140    0.5300
     17 O17       -10.7880    2.5631   62.3577 O.2     1  ZINC001220212140   -0.5100
     18 N18        -9.7597    0.6083   62.5669 N.am    1  ZINC001220212140   -0.5700
     19 C19        -9.3077   -0.6352   61.9380 C.3     1  ZINC001220212140    0.0700
     20 C20        -9.5125    0.8355   63.9252 C.ar    1  ZINC001220212140    0.1400
     21 C21        -8.2185    0.7464   64.4214 C.ar    1  ZINC001220212140   -0.1100
     22 C22        -7.9778    0.9712   65.7628 C.ar    1  ZINC001220212140   -0.1100
     23 C23        -9.0238    1.2843   66.6114 C.ar    1  ZINC001220212140   -0.1200
     24 C24       -10.3134    1.3733   66.1205 C.ar    1  ZINC001220212140   -0.1100
     25 C25       -10.5599    1.1561   64.7790 C.ar    1  ZINC001220212140   -0.1200
     26 C26        -9.3706    1.3429   59.5522 C.3     1  ZINC001220212140    0.1400
     27 C27        -9.2901    0.4897   53.8697 C.ar    1  ZINC001220212140   -0.1100
     28 C28        -8.5920    0.2117   52.7133 C.ar    1  ZINC001220212140   -0.1200
     29 C29        -7.4900    0.9833   52.3543 C.ar    1  ZINC001220212140    0.0900
     30 O30        -6.6575    0.8699   51.2762 O.3     1  ZINC001220212140   -0.3000
     31 H31        -7.7331    3.1957   50.5492 H       1  ZINC001220212140    0.0600
     32 H32        -6.2120    3.9990   50.0918 H       1  ZINC001220212140    0.0800
     33 H33        -6.7871    2.5904   49.1681 H       1  ZINC001220212140    0.0700
     34 H34        -4.9855    2.4018   53.0359 H       1  ZINC001220212140    0.0900
     35 H35        -6.0126    3.7775   52.5118 H       1  ZINC001220212140    0.0900
     36 H36        -7.4939    3.1378   54.9619 H       1  ZINC001220212140    0.1400
     37 H37       -10.4572    2.2890   55.8189 H       1  ZINC001220212140    0.4100
     38 H38       -10.9819    3.4183   57.8728 H       1  ZINC001220212140    0.0700
     39 H39       -11.8361    1.8602   57.6948 H       1  ZINC001220212140    0.0700
     40 H40       -11.1973    3.4089   60.1991 H       1  ZINC001220212140    0.1000
     41 H41       -12.5599    2.2897   59.8675 H       1  ZINC001220212140    0.0900
     42 H42        -8.3004   -0.4982   61.5447 H       1  ZINC001220212140    0.0700
     43 H43        -9.3029   -1.4357   62.6778 H       1  ZINC001220212140    0.0800
     44 H44        -9.9832   -0.8971   61.1236 H       1  ZINC001220212140    0.0800
     45 H45        -7.4013    0.5012   63.7593 H       1  ZINC001220212140    0.1200
     46 H46        -6.9717    0.9020   66.1492 H       1  ZINC001220212140    0.1300
     47 H47        -8.8330    1.4592   67.6599 H       1  ZINC001220212140    0.1300
     48 H48       -11.1282    1.6173   66.7861 H       1  ZINC001220212140    0.1300
     49 H49       -11.5672    1.2258   64.3963 H       1  ZINC001220212140    0.1200
     50 H50        -8.8811    0.3691   59.5541 H       1  ZINC001220212140    0.0900
     51 H51        -8.7024    2.1051   59.9529 H       1  ZINC001220212140    0.0700
     52 H52       -10.1435   -0.1140   54.1411 H       1  ZINC001220212140    0.1300
     53 H53        -8.9018   -0.6088   52.0828 H       1  ZINC001220212140    0.1300
@<TRIPOS>BOND
     1     1     2    1
     2     1    31    1
     3     1    32    1
     4     1    33    1
     5     2     3    1
     6     2    30    1
     7     2     4    1
     8     4     5    1
     9     4    34    1
    10     4    35    1
    11     5    29   ar
    12     5     6   ar
    13     6     7   ar
    14     6    36    1
    15     7     8    1
    16     7    27   ar
    17     8     9   am
    18     8    37    1
    19     9    10    2
    20     9    11   am
    21    11    26    1
    22    11    12    1
    23    12    13    1
    24    12    38    1
    25    12    39    1
    26    13    14    1
    27    13    40    1
    28    13    41    1
    29    14    15    1
    30    14    16    1
    31    14    26    1
    32    16    17    2
    33    16    18   am
    34    18    19    1
    35    18    20    1
    36    19    42    1
    37    19    43    1
    38    19    44    1
    39    20    25   ar
    40    20    21   ar
    41    21    22   ar
    42    21    45    1
    43    22    23   ar
    44    22    46    1
    45    23    24   ar
    46    23    47    1
    47    24    25   ar
    48    24    48    1
    49    25    49    1
    50    26    50    1
    51    26    51    1
    52    27    28   ar
    53    27    52    1
    54    28    29   ar
    55    28    53    1
    56    29    30    1
@<TRIPOS>SUBSTRUCTURE
     1 ZINC001220212140        1 TEMP              0 ****  ****    0 ROOT


##########                                Name:    ZINC000652498551
##########                DOCK_Rotatable_Bonds:                   6
##########                         Heavy_Atoms:                  23
##########                    Molecular_Weight:             388.277
##########                DOCK_Rotatable_Bonds:                   6
##########                       Formal_Charge:          -0.0400001
##########                     HBond_Acceptors:                   5
##########                        HBond_Donors:                   1
##########                         Heavy_Atoms:                  23
##########                          Grid_Score:          -29.489294
##########                     Grid_vdw_energy:          -26.579477
##########                      Grid_es_energy:           -2.909817
##########           Internal_energy_repulsive:           22.910011

@<TRIPOS>MOLECULE
ZINC000652498551
 46 47 1 0 0
SMALL
USER_CHARGES


@<TRIPOS>ATOM
      1 C1         -3.8240    2.9719   49.6602 C.3     1  ZINC000652498551   -0.1300
      2 C2         -3.7010    3.3769   51.1305 C.3     1  ZINC000652498551   -0.1300
      3 C3         -2.2855    3.0743   51.6261 C.3     1  ZINC000652498551   -0.1300
      4 C4         -3.9776    4.8517   51.2701 C.2     1  ZINC000652498551    0.5000
      5 O5         -5.0673    5.2999   50.9568 O.co2   1  ZINC000652498551   -0.7000
      6 O6         -3.1116    5.5967   51.6963 O.co2   1  ZINC000652498551   -0.6700
      7 C7         -4.7127    2.5872   51.9634 C.3     1  ZINC000652498551   -0.0600
      8 H8         -4.2787    1.6296   52.2512 H       1  ZINC000652498551    0.0700
      9 C9         -5.9790    2.3467   51.1365 C.3     1  ZINC000652498551   -0.1500
     10 C10        -7.0140    1.6249   52.0044 C.3     1  ZINC000652498551   -0.1400
     11 C11        -7.2896    2.4572   53.2584 C.3     1  ZINC000652498551   -0.0100
     12 N12        -6.0460    2.6294   54.0188 N.4     1  ZINC000652498551   -0.3800
     13 H13        -5.6633    1.7237   54.2453 H       1  ZINC000652498551    0.4200
     14 C14        -6.3298    3.3635   55.2592 C.3     1  ZINC000652498551    0.0000
     15 C15        -7.1514    2.4786   56.1988 C.3     1  ZINC000652498551    0.0200
     16 O16        -7.6356    3.2635   57.2904 O.3     1  ZINC000652498551   -0.3100
     17 C17        -8.6011    2.7083   58.0691 C.ar    1  ZINC000652498551    0.1600
     18 C18        -9.6636    3.4804   58.5138 C.ar    1  ZINC000652498551   -0.2300
     19 C19       -10.6457    2.9128   59.3068 C.ar    1  ZINC000652498551    0.1500
     20 F20       -11.6812    3.6642   59.7406 F       1  ZINC000652498551   -0.1200
     21 C21       -10.5671    1.5752   59.6554 C.ar    1  ZINC000652498551   -0.1600
     22 C22        -9.5070    0.8044   59.2126 C.ar    1  ZINC000652498551   -0.0300
     23 Br23       -9.4029   -1.0222   59.6903 Br      1  ZINC000652498551   -0.0100
     24 C24        -8.5276    1.3666   58.4156 C.ar    1  ZINC000652498551   -0.1300
     25 C25        -5.0727    3.3833   53.2195 C.3     1  ZINC000652498551   -0.0200
     26 H26        -3.6239    1.9051   49.5592 H       1  ZINC000652498551    0.0400
     27 H27        -4.8324    3.1875   49.3071 H       1  ZINC000652498551    0.0500
     28 H28        -3.1032    3.5345   49.0668 H       1  ZINC000652498551    0.0600
     29 H29        -1.5647    3.6369   51.0328 H       1  ZINC000652498551    0.0700
     30 H30        -2.1978    3.3629   52.6736 H       1  ZINC000652498551    0.0400
     31 H31        -2.0854    2.0076   51.5252 H       1  ZINC000652498551    0.0500
     32 H32        -6.3845    3.3024   50.8046 H       1  ZINC000652498551    0.1300
     33 H33        -5.7371    1.7314   50.2700 H       1  ZINC000652498551    0.0800
     34 H34        -7.9382    1.4997   51.4401 H       1  ZINC000652498551    0.1000
     35 H35        -6.6282    0.6474   52.2937 H       1  ZINC000652498551    0.0700
     36 H36        -7.6756    3.4343   52.9679 H       1  ZINC000652498551    0.1300
     37 H37        -8.0263    1.9463   53.8784 H       1  ZINC000652498551    0.1100
     38 H38        -5.3919    3.6350   55.7435 H       1  ZINC000652498551    0.1400
     39 H39        -6.8932    4.2670   55.0260 H       1  ZINC000652498551    0.1500
     40 H40        -7.9949    2.0547   55.6539 H       1  ZINC000652498551    0.1100
     41 H41        -6.5239    1.6733   56.5807 H       1  ZINC000652498551    0.0900
     42 H42        -9.7246    4.5238   58.2418 H       1  ZINC000652498551    0.1500
     43 H43       -11.3341    1.1331   60.2739 H       1  ZINC000652498551    0.1500
     44 H44        -7.7006    0.7641   58.0700 H       1  ZINC000652498551    0.1500
     45 H45        -4.1736    3.5560   53.8110 H       1  ZINC000652498551    0.1100
     46 H46        -5.5053    4.3408   52.9295 H       1  ZINC000652498551    0.1700
@<TRIPOS>BOND
     1     1     2    1
     2     1    26    1
     3     1    27    1
     4     1    28    1
     5     2     3    1
     6     2     4    1
     7     2     7    1
     8     3    29    1
     9     3    30    1
    10     3    31    1
    11     4     5   ar
    12     4     6   ar
    13     7     8    1
    14     7    25    1
    15     7     9    1
    16     9    10    1
    17     9    32    1
    18     9    33    1
    19    10    11    1
    20    10    34    1
    21    10    35    1
    22    11    12    1
    23    11    36    1
    24    11    37    1
    25    12    13    1
    26    12    14    1
    27    12    25    1
    28    14    15    1
    29    14    38    1
    30    14    39    1
    31    15    16    1
    32    15    40    1
    33    15    41    1
    34    16    17    1
    35    17    24   ar
    36    17    18   ar
    37    18    19   ar
    38    18    42    1
    39    19    20    1
    40    19    21   ar
    41    21    22   ar
    42    21    43    1
    43    22    23    1
    44    22    24   ar
    45    24    44    1
    46    25    45    1
    47    25    46    1
@<TRIPOS>SUBSTRUCTURE
     1 ZINC000652498551        1 TEMP              0 ****  ****    0 ROOT


##########                                Name:    ZINC000245764166
##########                DOCK_Rotatable_Bonds:                   8
##########                         Heavy_Atoms:                  26
##########                    Molecular_Weight:             359.512
##########                DOCK_Rotatable_Bonds:                   8
##########                       Formal_Charge:          -0.0100008
##########                     HBond_Acceptors:                   5
##########                        HBond_Donors:                   2
##########                         Heavy_Atoms:                  26
##########                          Grid_Score:          -29.479212
##########                     Grid_vdw_energy:          -28.442158
##########                      Grid_es_energy:           -1.037054
##########           Internal_energy_repulsive:           24.425861

@<TRIPOS>MOLECULE
ZINC000245764166
 59 61 1 0 0
SMALL
USER_CHARGES


@<TRIPOS>ATOM
      1 C1        -11.5447   -1.2382   52.0494 C.3     1  ZINC000245764166    0.0200
      2 N2        -11.7332    0.1320   52.5444 N.3     1  ZINC000245764166   -0.5300
      3 C3        -13.1091    0.5911   52.3118 C.3     1  ZINC000245764166    0.0600
      4 C4        -13.3431    0.7471   50.8312 C.ar    1  ZINC000245764166   -0.0800
      5 C5        -13.9174   -0.2829   50.1100 C.ar    1  ZINC000245764166   -0.1000
      6 C6        -14.1320   -0.1399   48.7519 C.ar    1  ZINC000245764166   -0.1200
      7 C7        -13.7727    1.0333   48.1152 C.ar    1  ZINC000245764166   -0.1200
      8 C8        -13.1992    2.0636   48.8365 C.ar    1  ZINC000245764166   -0.1200
      9 C9        -12.9886    1.9222   50.1954 C.ar    1  ZINC000245764166   -0.1200
     10 C10       -11.3784    0.2315   53.9664 C.3     1  ZINC000245764166    0.0500
     11 C11       -10.1735    1.1606   54.1275 C.3     1  ZINC000245764166    0.1900
     12 C12        -9.2668    1.0374   52.9013 C.3     1  ZINC000245764166   -0.1600
     13 C13       -10.6579    2.6057   54.2606 C.3     1  ZINC000245764166   -0.1500
     14 N14        -9.4240    0.7843   55.3287 N.am    1  ZINC000245764166   -0.7400
     15 C15       -10.0533    0.7024   56.5177 C.2     1  ZINC000245764166    0.7000
     16 O16       -11.2428    0.9423   56.5937 O.2     1  ZINC000245764166   -0.5800
     17 N17        -9.3641    0.3547   57.6225 N.am    1  ZINC000245764166   -0.7500
     18 C18       -10.0479    0.2674   58.9152 C.3     1  ZINC000245764166    0.1800
     19 H19       -11.0798   -0.0450   58.7548 H       1  ZINC000245764166    0.0900
     20 C20       -10.0365    1.6400   59.5833 C.3     1  ZINC000245764166   -0.1300
     21 C21       -10.8068    1.5469   60.9050 C.3     1  ZINC000245764166   -0.1100
     22 C22       -10.0663    0.5778   61.8264 C.3     1  ZINC000245764166   -0.1100
     23 C23        -9.9510   -0.7940   61.2042 C.3     1  ZINC000245764166    0.0900
     24 H24        -9.3190   -1.4183   61.8357 H       1  ZINC000245764166    0.0600
     25 O25       -11.2191   -1.4407   61.0310 O.3     1  ZINC000245764166   -0.3600
     26 C26       -10.9903   -2.5358   60.1222 C.3     1  ZINC000245764166    0.0500
     27 C27        -9.7666   -2.1676   59.2588 C.3     1  ZINC000245764166   -0.1500
     28 C28        -9.3388   -0.7676   59.7912 C.3     1  ZINC000245764166   -0.1300
     29 H29        -8.2566   -0.6382   59.8078 H       1  ZINC000245764166    0.1000
     30 H30       -11.7982   -1.2801   50.9902 H       1  ZINC000245764166    0.0800
     31 H31       -10.5046   -1.5340   52.1861 H       1  ZINC000245764166    0.0700
     32 H32       -12.1915   -1.9175   52.6049 H       1  ZINC000245764166    0.0200
     33 H33       -13.8093   -0.1405   52.7151 H       1  ZINC000245764166    0.0400
     34 H34       -13.2607    1.5504   52.8067 H       1  ZINC000245764166    0.1100
     35 H35       -14.1982   -1.1994   50.6075 H       1  ZINC000245764166    0.1200
     36 H36       -14.5801   -0.9449   48.1883 H       1  ZINC000245764166    0.1200
     37 H37       -13.9398    1.1447   47.0540 H       1  ZINC000245764166    0.1200
     38 H38       -12.9182    2.9801   48.3390 H       1  ZINC000245764166    0.1200
     39 H39       -12.5405    2.7272   50.7590 H       1  ZINC000245764166    0.1200
     40 H40       -12.2240    0.6330   54.5248 H       1  ZINC000245764166    0.0400
     41 H41       -11.1276   -0.7581   54.3485 H       1  ZINC000245764166    0.1000
     42 H42        -9.8245    1.3174   52.0076 H       1  ZINC000245764166    0.0700
     43 H43        -8.4084    1.6993   53.0161 H       1  ZINC000245764166    0.0800
     44 H44        -8.9217    0.0078   52.8065 H       1  ZINC000245764166    0.0500
     45 H45       -11.2013    2.7219   55.1983 H       1  ZINC000245764166    0.0600
     46 H46        -9.8004    3.2786   54.2517 H       1  ZINC000245764166    0.0800
     47 H47       -11.3170    2.8462   53.4264 H       1  ZINC000245764166    0.0600
     48 H48        -8.4747    0.5941   55.2684 H       1  ZINC000245764166    0.3900
     49 H49        -8.4154    0.1621   57.5617 H       1  ZINC000245764166    0.3900
     50 H50        -9.0080    1.9427   59.7798 H       1  ZINC000245764166    0.0600
     51 H51       -10.5168    2.3687   58.9305 H       1  ZINC000245764166    0.0700
     52 H52       -10.8567    2.5310   61.3711 H       1  ZINC000245764166    0.0700
     53 H53       -11.8150    1.1774   60.7173 H       1  ZINC000245764166    0.0700
     54 H54        -9.0668    0.9655   62.0227 H       1  ZINC000245764166    0.0800
     55 H55       -10.6080    0.4974   62.7689 H       1  ZINC000245764166    0.0700
     56 H56       -10.7865   -3.4473   60.6842 H       1  ZINC000245764166    0.0600
     57 H57       -11.8637   -2.6780   59.4858 H       1  ZINC000245764166    0.0800
     58 H58        -8.9652   -2.8923   59.4027 H       1  ZINC000245764166    0.0800
     59 H59       -10.0450   -2.1080   58.2067 H       1  ZINC000245764166    0.0800
@<TRIPOS>BOND
     1     1     2    1
     2     1    30    1
     3     1    31    1
     4     1    32    1
     5     2     3    1
     6     2    10    1
     7     3     4    1
     8     3    33    1
     9     3    34    1
    10     4     9   ar
    11     4     5   ar
    12     5     6   ar
    13     5    35    1
    14     6     7   ar
    15     6    36    1
    16     7     8   ar
    17     7    37    1
    18     8     9   ar
    19     8    38    1
    20     9    39    1
    21    10    11    1
    22    10    40    1
    23    10    41    1
    24    11    12    1
    25    11    13    1
    26    11    14    1
    27    12    42    1
    28    12    43    1
    29    12    44    1
    30    13    45    1
    31    13    46    1
    32    13    47    1
    33    14    15   am
    34    14    48    1
    35    15    16    2
    36    15    17   am
    37    17    18    1
    38    17    49    1
    39    18    19    1
    40    18    28    1
    41    18    20    1
    42    20    21    1
    43    20    50    1
    44    20    51    1
    45    21    22    1
    46    21    52    1
    47    21    53    1
    48    22    23    1
    49    22    54    1
    50    22    55    1
    51    23    24    1
    52    23    28    1
    53    23    25    1
    54    25    26    1
    55    26    27    1
    56    26    56    1
    57    26    57    1
    58    27    28    1
    59    27    58    1
    60    27    59    1
    61    28    29    1
@<TRIPOS>SUBSTRUCTURE
     1 ZINC000245764166        1 TEMP              0 ****  ****    0 ROOT


##########                                Name:    ZINC000846412382
##########                DOCK_Rotatable_Bonds:                   6
##########                         Heavy_Atoms:                  26
##########                    Molecular_Weight:             370.475
##########                DOCK_Rotatable_Bonds:                   6
##########                       Formal_Charge:               -0.03
##########                     HBond_Acceptors:                   7
##########                        HBond_Donors:                   4
##########                         Heavy_Atoms:                  26
##########                          Grid_Score:          -29.465141
##########                     Grid_vdw_energy:          -27.650888
##########                      Grid_es_energy:           -1.814252
##########           Internal_energy_repulsive:           24.931709

@<TRIPOS>MOLECULE
ZINC000846412382
 48 50 1 0 0
SMALL
USER_CHARGES


@<TRIPOS>ATOM
      1 C1         -8.6309    2.6657   53.4209 C.3     1  ZINC000846412382   -0.1400
      2 C2         -8.0125    2.4361   54.7758 C.2     1  ZINC000846412382    0.0300
      3 C3         -6.8279    2.9580   55.1182 C.2     1  ZINC000846412382   -0.2700
      4 C4         -6.0009    3.7975   54.2429 C.2     1  ZINC000846412382    0.6000
      5 O5         -6.3349    4.9432   54.0057 O.2     1  ZINC000846412382   -0.5200
      6 N6         -4.8714    3.2992   53.7019 N.am    1  ZINC000846412382   -0.7100
      7 C7         -4.0470    4.1366   52.8270 C.3     1  ZINC000846412382    0.1200
      8 H8         -4.4674    5.1413   52.7840 H       1  ZINC000846412382    0.1000
      9 C9         -2.6218    4.2032   53.3797 C.3     1  ZINC000846412382   -0.1700
     10 C10        -4.0209    3.5341   51.4209 C.3     1  ZINC000846412382    0.1700
     11 C11        -3.5374    2.0844   51.4961 C.3     1  ZINC000846412382   -0.1400
     12 O12        -3.1330    4.2901   50.5950 O.3     1  ZINC000846412382   -0.5500
     13 C13        -5.4080    3.5710   50.8328 C.ar    1  ZINC000846412382   -0.1200
     14 C14        -6.0370    2.3943   50.4714 C.ar    1  ZINC000846412382   -0.1100
     15 C15        -7.3093    2.4282   49.9319 C.ar    1  ZINC000846412382   -0.1200
     16 C16        -7.9528    3.6387   49.7544 C.ar    1  ZINC000846412382   -0.1200
     17 C17        -7.3240    4.8153   50.1166 C.ar    1  ZINC000846412382   -0.1200
     18 C18        -6.0534    4.7811   50.6600 C.ar    1  ZINC000846412382   -0.1000
     19 S19        -6.4002    2.5000   56.7580 S.3     1  ZINC000846412382    0.2000
     20 C20        -7.8888    1.5824   56.9426 C.ar    1  ZINC000846412382    0.1400
     21 N21        -8.3679    0.8743   57.9716 N.ar    1  ZINC000846412382   -0.5300
     22 C22        -9.5246    0.2575   57.8900 C.ar    1  ZINC000846412382    0.3900
     23 C23       -10.0176   -0.5259   59.0792 C.3     1  ZINC000846412382   -0.0900
     24 N24       -10.2703    0.3014   56.8010 N.ar    1  ZINC000846412382   -0.5800
     25 C25        -9.8834    0.9759   55.7290 C.ar    1  ZINC000846412382    0.5100
     26 N26       -10.6754    1.0110   54.5992 N.pl3   1  ZINC000846412382   -0.8300
     27 C27        -8.6403    1.6686   55.7624 C.ar    1  ZINC000846412382   -0.2500
     28 H28        -9.3233    3.5057   53.4752 H       1  ZINC000846412382    0.0800
     29 H29        -7.8471    2.8872   52.6966 H       1  ZINC000846412382    0.1100
     30 H30        -9.1695    1.7702   53.1110 H       1  ZINC000846412382    0.0700
     31 H31        -4.6044    2.3863   53.8919 H       1  ZINC000846412382    0.4000
     32 H32        -2.2015    3.1984   53.4226 H       1  ZINC000846412382    0.0600
     33 H33        -2.0084    4.8262   52.7288 H       1  ZINC000846412382    0.0800
     34 H34        -2.6404    4.6324   54.3815 H       1  ZINC000846412382    0.0700
     35 H35        -4.2147    1.5077   52.1260 H       1  ZINC000846412382    0.0700
     36 H36        -3.5187    1.6551   50.4944 H       1  ZINC000846412382    0.0700
     37 H37        -2.5342    2.0577   51.9215 H       1  ZINC000846412382    0.0700
     38 H38        -3.4935    5.1390   50.3042 H       1  ZINC000846412382    0.3800
     39 H39        -5.5343    1.4486   50.6102 H       1  ZINC000846412382    0.1300
     40 H40        -7.8005    1.5090   49.6489 H       1  ZINC000846412382    0.1200
     41 H41        -8.9464    3.6652   49.3322 H       1  ZINC000846412382    0.1200
     42 H42        -7.8266    5.7611   49.9775 H       1  ZINC000846412382    0.1200
     43 H43        -5.5622    5.7004   50.9430 H       1  ZINC000846412382    0.1300
     44 H44       -10.6094    0.1248   59.7231 H       1  ZINC000846412382    0.0900
     45 H45       -10.6346   -1.3565   58.7366 H       1  ZINC000846412382    0.0900
     46 H46        -9.1655   -0.9127   59.6381 H       1  ZINC000846412382    0.0900
     47 H47       -11.3359    0.3168   54.4481 H       1  ZINC000846412382    0.4100
     48 H48       -10.5715    1.7299   53.9563 H       1  ZINC000846412382    0.4200
@<TRIPOS>BOND
     1     1     2    1
     2     1    28    1
     3     1    29    1
     4     1    30    1
     5     2    27    1
     6     2     3    2
     7     3     4    1
     8     3    19    1
     9     4     5    2
    10     4     6   am
    11     6     7    1
    12     6    31    1
    13     7     8    1
    14     7     9    1
    15     7    10    1
    16     9    32    1
    17     9    33    1
    18     9    34    1
    19    10    11    1
    20    10    12    1
    21    10    13    1
    22    11    35    1
    23    11    36    1
    24    11    37    1
    25    12    38    1
    26    13    18   ar
    27    13    14   ar
    28    14    15   ar
    29    14    39    1
    30    15    16   ar
    31    15    40    1
    32    16    17   ar
    33    16    41    1
    34    17    18   ar
    35    17    42    1
    36    18    43    1
    37    19    20    1
    38    20    27   ar
    39    20    21   ar
    40    21    22   ar
    41    22    23    1
    42    22    24   ar
    43    23    44    1
    44    23    45    1
    45    23    46    1
    46    24    25   ar
    47    25    26    1
    48    25    27   ar
    49    26    47    1
    50    26    48    1
@<TRIPOS>SUBSTRUCTURE
     1 ZINC000846412382        1 TEMP              0 ****  ****    0 ROOT


##########                                Name:    ZINC000451500596
##########                DOCK_Rotatable_Bonds:                   7
##########                         Heavy_Atoms:                  25
##########                    Molecular_Weight:             365.497
##########                DOCK_Rotatable_Bonds:                   7
##########                       Formal_Charge:           0.0400004
##########                     HBond_Acceptors:                   7
##########                        HBond_Donors:                   2
##########                         Heavy_Atoms:                  25
##########                          Grid_Score:          -29.435957
##########                     Grid_vdw_energy:          -26.880365
##########                      Grid_es_energy:           -2.555592
##########           Internal_energy_repulsive:           11.176791

@<TRIPOS>MOLECULE
ZINC000451500596
 52 54 1 0 0
SMALL
USER_CHARGES


@<TRIPOS>ATOM
      1 C1        -10.2066    4.7385   48.1833 C.3     1  ZINC000451500596   -0.6700
      2 S2         -9.5363    5.7040   49.5649 S.o2    1  ZINC000451500596    2.6100
      3 O3         -8.9222    6.8942   49.0898 O.2     1  ZINC000451500596   -0.9500
      4 O4        -10.4595    5.7366   50.6447 O.2     1  ZINC000451500596   -0.9600
      5 N5         -8.2757    4.7927   50.1328 N.am    1  ZINC000451500596   -1.1200
      6 C6         -7.4828    5.2669   51.2697 C.3     1  ZINC000451500596    0.1200
      7 C7         -6.6131    4.1239   51.7971 C.3     1  ZINC000451500596   -0.1000
      8 H8         -6.1188    4.4265   52.7202 H       1  ZINC000451500596    0.0900
      9 C9         -5.5615    3.7288   50.7397 C.3     1  ZINC000451500596   -0.1200
     10 C10        -5.4545    2.1889   50.8674 C.3     1  ZINC000451500596   -0.1300
     11 C11        -6.9209    1.7649   51.1305 C.3     1  ZINC000451500596   -0.1300
     12 C12        -7.4776    2.8757   52.0467 C.3     1  ZINC000451500596    0.1400
     13 H13        -8.5166    3.0841   51.7918 H       1  ZINC000451500596    0.1000
     14 N14        -7.3779    2.4657   53.4497 N.am    1  ZINC000451500596   -0.7200
     15 C15        -8.3059    2.8727   54.3382 C.2     1  ZINC000451500596    0.5300
     16 O16        -9.2228    3.5795   53.9766 O.2     1  ZINC000451500596   -0.5300
     17 C17        -8.2045    2.4495   55.7810 C.3     1  ZINC000451500596   -0.1300
     18 H18        -7.3305    1.8166   55.9351 H       1  ZINC000451500596    0.1000
     19 C19        -8.1558    3.6883   56.7138 C.3     1  ZINC000451500596   -0.1200
     20 C20        -8.7266    3.1097   58.0324 C.3     1  ZINC000451500596    0.0500
     21 N21        -9.7845    2.1693   57.6054 N.3     1  ZINC000451500596   -0.4900
     22 C22        -9.8662    1.0793   58.4749 C.ar    1  ZINC000451500596    0.0800
     23 C23       -11.0039    0.8900   59.2491 C.ar    1  ZINC000451500596   -0.0900
     24 C24       -11.0815   -0.1890   60.1075 C.ar    1  ZINC000451500596   -0.1100
     25 C25       -10.0281   -1.0804   60.1973 C.ar    1  ZINC000451500596   -0.1200
     26 C26        -8.8939   -0.8949   59.4280 C.ar    1  ZINC000451500596   -0.1100
     27 C27        -8.8121    0.1788   58.5634 C.ar    1  ZINC000451500596   -0.1500
     28 C28        -9.4902    1.7227   56.2283 C.3     1  ZINC000451500596    0.0600
     29 H29        -9.4329    4.5990   47.4283 H       1  ZINC000451500596    0.1300
     30 H30       -10.5389    3.7661   48.5470 H       1  ZINC000451500596    0.1300
     31 H31       -11.0510    5.2700   47.7443 H       1  ZINC000451500596    0.1300
     32 H32        -8.0622    3.9449   49.7126 H       1  ZINC000451500596    0.4200
     33 H33        -6.8450    6.0907   50.9496 H       1  ZINC000451500596    0.0700
     34 H34        -8.1503    5.6101   52.0602 H       1  ZINC000451500596    0.0900
     35 H35        -5.9012    4.0061   49.7418 H       1  ZINC000451500596    0.0800
     36 H36        -4.6028    4.1975   50.9614 H       1  ZINC000451500596    0.0700
     37 H37        -5.0856    1.7492   49.9408 H       1  ZINC000451500596    0.0700
     38 H38        -4.8164    1.9144   51.7074 H       1  ZINC000451500596    0.0700
     39 H39        -7.4800    1.7251   50.1957 H       1  ZINC000451500596    0.0800
     40 H40        -6.9540    0.8006   51.6373 H       1  ZINC000451500596    0.0700
     41 H41        -6.6439    1.9014   53.7391 H       1  ZINC000451500596    0.4000
     42 H42        -7.1312    4.0342   56.8504 H       1  ZINC000451500596    0.0800
     43 H43        -8.7891    4.4893   56.3324 H       1  ZINC000451500596    0.0800
     44 H44        -7.9485    2.5810   58.5831 H       1  ZINC000451500596    0.0600
     45 H45        -9.1509    3.9060   58.6439 H       1  ZINC000451500596    0.0900
     46 H46       -11.8268    1.5862   59.1800 H       1  ZINC000451500596    0.1300
     47 H47       -11.9659   -0.3368   60.7096 H       1  ZINC000451500596    0.1300
     48 H48       -10.0911   -1.9229   60.8699 H       1  ZINC000451500596    0.1200
     49 H49        -8.0730   -1.5929   59.5006 H       1  ZINC000451500596    0.1200
     50 H50        -7.9262    0.3230   57.9627 H       1  ZINC000451500596    0.1200
     51 H51       -10.3142    1.9913   55.5673 H       1  ZINC000451500596    0.1000
     52 H52        -9.3364    0.6438   56.2133 H       1  ZINC000451500596    0.0700
@<TRIPOS>BOND
     1     1     2    1
     2     1    29    1
     3     1    30    1
     4     1    31    1
     5     2     3    2
     6     2     4    2
     7     2     5   am
     8     5     6    1
     9     5    32    1
    10     6     7    1
    11     6    33    1
    12     6    34    1
    13     7     8    1
    14     7    12    1
    15     7     9    1
    16     9    10    1
    17     9    35    1
    18     9    36    1
    19    10    11    1
    20    10    37    1
    21    10    38    1
    22    11    12    1
    23    11    39    1
    24    11    40    1
    25    12    13    1
    26    12    14    1
    27    14    15   am
    28    14    41    1
    29    15    16    2
    30    15    17    1
    31    17    18    1
    32    17    28    1
    33    17    19    1
    34    19    20    1
    35    19    42    1
    36    19    43    1
    37    20    21    1
    38    20    44    1
    39    20    45    1
    40    21    22    1
    41    21    28    1
    42    22    27   ar
    43    22    23   ar
    44    23    24   ar
    45    23    46    1
    46    24    25   ar
    47    24    47    1
    48    25    26   ar
    49    25    48    1
    50    26    27   ar
    51    26    49    1
    52    27    50    1
    53    28    51    1
    54    28    52    1
@<TRIPOS>SUBSTRUCTURE
     1 ZINC000451500596        1 TEMP              0 ****  ****    0 ROOT


##########                                Name:    ZINC000451019064
##########                DOCK_Rotatable_Bonds:                   8
##########                         Heavy_Atoms:                  23
##########                    Molecular_Weight:             346.534
##########                DOCK_Rotatable_Bonds:                   8
##########                       Formal_Charge:          -0.0200008
##########                     HBond_Acceptors:                   6
##########                        HBond_Donors:                   1
##########                         Heavy_Atoms:                  23
##########                          Grid_Score:          -29.432537
##########                     Grid_vdw_energy:          -29.675653
##########                      Grid_es_energy:            0.243116
##########           Internal_energy_repulsive:           19.262180

@<TRIPOS>MOLECULE
ZINC000451019064
 57 58 1 0 0
SMALL
USER_CHARGES


@<TRIPOS>ATOM
      1 C1        -14.5713   -0.5054   57.0182 C.3     1  ZINC000451019064   -0.1500
      2 C2        -13.2038   -0.9550   56.4997 C.3     1  ZINC000451019064    0.0900
      3 H3        -12.4735   -0.1630   56.6650 H       1  ZINC000451019064    0.0700
      4 C4        -13.2994   -1.2578   55.0019 C.3     1  ZINC000451019064    0.0200
      5 N5        -12.0035   -1.7626   54.5256 N.3     1  ZINC000451019064   -0.5400
      6 C6        -12.0355   -2.0124   53.0784 C.3     1  ZINC000451019064    0.0600
      7 C7        -11.4450   -0.8094   52.3400 C.3     1  ZINC000451019064   -0.1300
      8 C8        -10.0783   -0.4660   52.9357 C.3     1  ZINC000451019064    0.1100
      9 N9         -9.3688    0.4468   52.0359 N.am    1  ZINC000451019064   -1.1200
     10 S10        -7.7517    0.7313   52.2513 S.o2    1  ZINC000451019064    2.6100
     11 O11        -7.6732    1.3629   53.5218 O.2     1  ZINC000451019064   -0.9600
     12 O12        -7.1402   -0.5306   52.0214 O.2     1  ZINC000451019064   -0.9500
     13 C13        -7.3178    1.8987   50.9323 C.3     1  ZINC000451019064   -0.6300
     14 C14        -5.8241    2.2213   51.0077 C.3     1  ZINC000451019064   -0.1100
     15 C15        -5.5264    2.9563   52.3160 C.3     1  ZINC000451019064   -0.0800
     16 C16        -4.0327    3.2789   52.3913 C.3     1  ZINC000451019064   -0.1200
     17 C17        -3.7349    4.0140   53.6997 C.3     1  ZINC000451019064   -0.1200
     18 C18        -4.5405    5.3138   53.7491 C.3     1  ZINC000451019064   -0.1200
     19 C19        -6.0342    4.9912   53.6739 C.3     1  ZINC000451019064   -0.1200
     20 C20        -6.3320    4.2561   52.3654 C.3     1  ZINC000451019064   -0.1200
     21 C21       -11.6143   -2.9747   55.2610 C.3     1  ZINC000451019064    0.0200
     22 C22       -11.5357   -2.6547   56.7561 C.3     1  ZINC000451019064    0.0900
     23 H23       -10.7562   -1.9126   56.9290 H       1  ZINC000451019064    0.0700
     24 C24       -11.2085   -3.9303   57.5351 C.3     1  ZINC000451019064   -0.1500
     25 O25       -12.7939   -2.1355   57.1951 O.3     1  ZINC000451019064   -0.3800
     26 H26       -14.5030   -0.2915   58.0849 H       1  ZINC000451019064    0.0700
     27 H27       -14.8838    0.3934   56.4867 H       1  ZINC000451019064    0.0700
     28 H28       -15.3012   -1.2978   56.8526 H       1  ZINC000451019064    0.0600
     29 H29       -14.0685   -2.0111   54.8312 H       1  ZINC000451019064    0.0400
     30 H30       -13.5557   -0.3463   54.4620 H       1  ZINC000451019064    0.0900
     31 H31       -11.4490   -2.9023   52.8502 H       1  ZINC000451019064    0.0400
     32 H32       -13.0663   -2.1647   52.7587 H       1  ZINC000451019064    0.0800
     33 H33       -11.3304   -1.0520   51.2836 H       1  ZINC000451019064    0.0800
     34 H34       -12.1128    0.0456   52.4461 H       1  ZINC000451019064    0.0800
     35 H35       -10.2145    0.0128   53.9054 H       1  ZINC000451019064    0.0800
     36 H36        -9.4963   -1.3792   53.0598 H       1  ZINC000451019064    0.0700
     37 H37        -9.8462    0.8845   51.3138 H       1  ZINC000451019064    0.4200
     38 H38        -7.5449    1.4533   49.9637 H       1  ZINC000451019064    0.1300
     39 H39        -7.8942    2.8157   51.0546 H       1  ZINC000451019064    0.1400
     40 H40        -5.2502    1.2952   50.9724 H       1  ZINC000451019064    0.0800
     41 H41        -5.5460    2.8534   50.1643 H       1  ZINC000451019064    0.0800
     42 H42        -5.8045    2.3242   53.1593 H       1  ZINC000451019064    0.0800
     43 H43        -3.4588    2.3529   52.3561 H       1  ZINC000451019064    0.0600
     44 H44        -3.7546    3.9110   51.5479 H       1  ZINC000451019064    0.0700
     45 H45        -4.0131    3.3819   54.5429 H       1  ZINC000451019064    0.0600
     46 H46        -2.6708    4.2438   53.7533 H       1  ZINC000451019064    0.0600
     47 H47        -4.3284    5.8375   54.6812 H       1  ZINC000451019064    0.0600
     48 H48        -4.2624    5.9459   52.9058 H       1  ZINC000451019064    0.0600
     49 H49        -6.3124    4.3591   54.5172 H       1  ZINC000451019064    0.0600
     50 H50        -6.6082    5.9172   53.7091 H       1  ZINC000451019064    0.0600
     51 H51        -6.0539    4.8882   51.5222 H       1  ZINC000451019064    0.0700
     52 H52        -7.3962    4.0264   52.3119 H       1  ZINC000451019064    0.0600
     53 H53       -12.3564   -3.7554   55.0945 H       1  ZINC000451019064    0.0400
     54 H54       -10.6405   -3.3163   54.9102 H       1  ZINC000451019064    0.0900
     55 H55       -10.2507   -4.3264   57.1977 H       1  ZINC000451019064    0.0700
     56 H56       -11.1526   -3.7018   58.5994 H       1  ZINC000451019064    0.0700
     57 H57       -11.9890   -4.6714   57.3630 H       1  ZINC000451019064    0.0600
@<TRIPOS>BOND
     1     1     2    1
     2     1    26    1
     3     1    27    1
     4     1    28    1
     5     2     3    1
     6     2    25    1
     7     2     4    1
     8     4     5    1
     9     4    29    1
    10     4    30    1
    11     5     6    1
    12     5    21    1
    13     6     7    1
    14     6    31    1
    15     6    32    1
    16     7     8    1
    17     7    33    1
    18     7    34    1
    19     8     9    1
    20     8    35    1
    21     8    36    1
    22     9    10   am
    23     9    37    1
    24    10    11    2
    25    10    12    2
    26    10    13    1
    27    13    14    1
    28    13    38    1
    29    13    39    1
    30    14    15    1
    31    14    40    1
    32    14    41    1
    33    15    20    1
    34    15    16    1
    35    15    42    1
    36    16    17    1
    37    16    43    1
    38    16    44    1
    39    17    18    1
    40    17    45    1
    41    17    46    1
    42    18    19    1
    43    18    47    1
    44    18    48    1
    45    19    20    1
    46    19    49    1
    47    19    50    1
    48    20    51    1
    49    20    52    1
    50    21    22    1
    51    21    53    1
    52    21    54    1
    53    22    23    1
    54    22    24    1
    55    22    25    1
    56    24    55    1
    57    24    56    1
    58    24    57    1
@<TRIPOS>SUBSTRUCTURE
     1 ZINC000451019064        1 TEMP              0 ****  ****    0 ROOT


##########                                Name:    ZINC000329637067
##########                DOCK_Rotatable_Bonds:                   5
##########                         Heavy_Atoms:                  26
##########                    Molecular_Weight:             362.429
##########                DOCK_Rotatable_Bonds:                   5
##########                       Formal_Charge:           0.0199998
##########                     HBond_Acceptors:                   8
##########                        HBond_Donors:                   0
##########                         Heavy_Atoms:                  26
##########                          Grid_Score:          -29.428108
##########                     Grid_vdw_energy:          -28.266684
##########                      Grid_es_energy:           -1.161424
##########           Internal_energy_repulsive:          127.654083

@<TRIPOS>MOLECULE
ZINC000329637067
 52 54 1 0 0
SMALL
USER_CHARGES


@<TRIPOS>ATOM
      1 C1        -11.1208    2.3462   59.1266 C.3     1  ZINC000329637067   -0.1300
      2 C2        -10.3980    1.2254   59.8284 C.2     1  ZINC000329637067    0.2200
      3 C3        -10.2072    1.2659   61.1747 C.2     1  ZINC000329637067   -0.2900
      4 C4         -9.5330    0.2113   61.7973 C.2     1  ZINC000329637067    0.2800
      5 C5         -9.3094    0.2327   63.2875 C.3     1  ZINC000329637067   -0.1200
      6 N6         -9.0938   -0.8016   61.0781 N.2     1  ZINC000329637067   -0.5500
      7 C7         -9.2842   -0.8357   59.7569 C.2     1  ZINC000329637067    0.6400
      8 O8         -8.8678   -1.7848   59.1141 O.2     1  ZINC000329637067   -0.5300
      9 N9         -9.9340    0.1596   59.1251 N.am    1  ZINC000329637067   -0.5000
     10 C10       -10.1309    0.0992   57.6747 C.3     1  ZINC000329637067    0.0700
     11 C11        -8.9932    0.8056   56.9834 C.2     1  ZINC000329637067    0.5100
     12 O12        -7.9881    1.0857   57.6018 O.2     1  ZINC000329637067   -0.5200
     13 N13        -9.0925    1.1261   55.6781 N.am    1  ZINC000329637067   -0.6100
     14 C14       -10.3036    0.7932   54.9157 C.3     1  ZINC000329637067    0.1000
     15 C15       -10.8289    2.0659   54.2442 C.3     1  ZINC000329637067   -0.1400
     16 C16        -9.7123    2.6945   53.4074 C.3     1  ZINC000329637067   -0.1000
     17 C17        -8.5432    3.0762   54.3181 C.3     1  ZINC000329637067   -0.1200
     18 H18        -8.8890    3.7736   55.0811 H       1  ZINC000329637067    0.1000
     19 C19        -7.4579    3.7252   53.4983 C.2     1  ZINC000329637067    0.5300
     20 O20        -7.1796    4.8921   53.6759 O.2     1  ZINC000329637067   -0.5300
     21 N21        -6.7967    3.0087   52.5677 N.am    1  ZINC000329637067   -0.6200
     22 C22        -7.1211    1.5932   52.3300 C.3     1  ZINC000329637067    0.0800
     23 C23        -7.3345    1.3921   50.8254 C.3     1  ZINC000329637067    0.0500
     24 O24        -6.2074    1.9129   50.1165 O.3     1  ZINC000329637067   -0.3800
     25 C25        -6.0106    3.3192   50.2821 C.3     1  ZINC000329637067    0.0500
     26 C26        -5.7334    3.6205   51.7550 C.3     1  ZINC000329637067    0.0700
     27 C27        -7.9944    1.8203   54.9920 C.3     1  ZINC000329637067    0.1200
     28 H28       -11.9652    1.9410   58.5689 H       1  ZINC000329637067    0.0900
     29 H29       -11.4826    3.0630   59.8638 H       1  ZINC000329637067    0.1000
     30 H30       -10.4375    2.8452   58.4395 H       1  ZINC000329637067    0.0900
     31 H31       -10.5711    2.1013   61.7543 H       1  ZINC000329637067    0.1600
     32 H32       -10.1490   -0.2501   63.7878 H       1  ZINC000329637067    0.1000
     33 H33        -8.3893   -0.3014   63.5247 H       1  ZINC000329637067    0.0900
     34 H34        -9.2284    1.2650   63.6280 H       1  ZINC000329637067    0.0900
     35 H35       -10.1596   -0.9424   57.3549 H       1  ZINC000329637067    0.1200
     36 H36       -11.0715    0.5851   57.4152 H       1  ZINC000329637067    0.1300
     37 H37       -10.0636    0.0508   54.1545 H       1  ZINC000329637067    0.0800
     38 H38       -11.0623    0.3960   55.5900 H       1  ZINC000329637067    0.0900
     39 H39       -11.6706    1.8157   53.5984 H       1  ZINC000329637067    0.0900
     40 H40       -11.1532    2.7728   55.0079 H       1  ZINC000329637067    0.0700
     41 H41        -9.3715    1.9782   52.6599 H       1  ZINC000329637067    0.0800
     42 H42       -10.0906    3.5869   52.9089 H       1  ZINC000329637067    0.0800
     43 H43        -6.2978    0.9656   52.6712 H       1  ZINC000329637067    0.0800
     44 H44        -8.0316    1.3299   52.8682 H       1  ZINC000329637067    0.1000
     45 H45        -7.4393    0.3284   50.6114 H       1  ZINC000329637067    0.1100
     46 H46        -8.2363    1.9179   50.5119 H       1  ZINC000329637067    0.0600
     47 H47        -5.1631    3.6419   49.6775 H       1  ZINC000329637067    0.1100
     48 H48        -6.9076    3.8520   49.9668 H       1  ZINC000329637067    0.0600
     49 H49        -5.7227    4.6988   51.9135 H       1  ZINC000329637067    0.1000
     50 H50        -4.7706    3.1972   52.0414 H       1  ZINC000329637067    0.0800
     51 H51        -7.2280    2.0990   55.7153 H       1  ZINC000329637067    0.1000
     52 H52        -7.5658    1.1591   54.2389 H       1  ZINC000329637067    0.0800
@<TRIPOS>BOND
     1     1     2    1
     2     1    28    1
     3     1    29    1
     4     1    30    1
     5     2     9    1
     6     2     3    2
     7     3     4    1
     8     3    31    1
     9     4     5    1
    10     4     6    2
    11     5    32    1
    12     5    33    1
    13     5    34    1
    14     6     7    1
    15     7     8    2
    16     7     9   am
    17     9    10    1
    18    10    11    1
    19    10    35    1
    20    10    36    1
    21    11    12    2
    22    11    13   am
    23    13    27    1
    24    13    14    1
    25    14    15    1
    26    14    37    1
    27    14    38    1
    28    15    16    1
    29    15    39    1
    30    15    40    1
    31    16    17    1
    32    16    41    1
    33    16    42    1
    34    17    18    1
    35    17    19    1
    36    17    27    1
    37    19    20    2
    38    19    21   am
    39    21    26    1
    40    21    22    1
    41    22    23    1
    42    22    43    1
    43    22    44    1
    44    23    24    1
    45    23    45    1
    46    23    46    1
    47    24    25    1
    48    25    26    1
    49    25    47    1
    50    25    48    1
    51    26    49    1
    52    26    50    1
    53    27    51    1
    54    27    52    1
@<TRIPOS>SUBSTRUCTURE
     1 ZINC000329637067        1 TEMP              0 ****  ****    0 ROOT


##########                                Name:    ZINC000089894387
##########                DOCK_Rotatable_Bonds:                   8
##########                         Heavy_Atoms:                  22
##########                    Molecular_Weight:             326.823
##########                DOCK_Rotatable_Bonds:                   8
##########                       Formal_Charge:          -0.0300003
##########                     HBond_Acceptors:                   6
##########                        HBond_Donors:                   2
##########                         Heavy_Atoms:                  22
##########                          Grid_Score:          -29.415300
##########                     Grid_vdw_energy:          -30.050766
##########                      Grid_es_energy:            0.635466
##########           Internal_energy_repulsive:           21.774006

@<TRIPOS>MOLECULE
ZINC000089894387
 45 46 1 0 0
SMALL
USER_CHARGES


@<TRIPOS>ATOM
      1 C1         -6.8939    4.4384   52.0094 C.3     1  ZINC000089894387   -0.1700
      2 C2         -6.7012    2.9444   52.2776 C.3     1  ZINC000089894387    0.1700
      3 H3         -6.6221    2.7753   53.3515 H       1  ZINC000089894387    0.0900
      4 N4         -7.8480    2.2015   51.7493 N.am    1  ZINC000089894387   -0.7400
      5 C5         -8.3708    1.1786   52.4540 C.2     1  ZINC000089894387    0.7100
      6 O6         -7.8897    0.8712   53.5275 O.2     1  ZINC000089894387   -0.5900
      7 N7         -9.4269    0.4961   51.9688 N.am    1  ZINC000089894387   -0.7500
      8 C8         -9.9962   -0.6148   52.7356 C.3     1  ZINC000089894387    0.1400
      9 C9        -11.1625   -1.2269   51.9572 C.3     1  ZINC000089894387    0.0500
     10 O10       -11.5513   -2.4574   52.5711 O.3     1  ZINC000089894387   -0.3100
     11 C11       -11.9310   -2.4035   53.8748 C.ar    1  ZINC000089894387    0.1400
     12 C12       -13.0271   -1.6396   54.2481 C.ar    1  ZINC000089894387   -0.2100
     13 C13       -13.4117   -1.5859   55.5741 C.ar    1  ZINC000089894387   -0.0700
     14 C14       -12.7054   -2.2928   56.5293 C.ar    1  ZINC000089894387   -0.1500
     15 C15       -11.6110   -3.0556   56.1600 C.ar    1  ZINC000089894387    0.0000
     16 Cl16      -10.7260   -3.9421   57.3619 Cl      1  ZINC000089894387   -0.0600
     17 C17       -11.2264   -3.1170   54.8335 C.ar    1  ZINC000089894387   -0.1500
     18 C18        -5.4217    2.4637   51.5901 C.3     1  ZINC000089894387   -0.1000
     19 C19        -5.4483    2.8726   50.1142 C.3     1  ZINC000089894387   -0.1600
     20 C20        -4.1310    2.4572   49.4538 C.3     1  ZINC000089894387    0.0600
     21 O21        -3.0394    3.0640   50.1483 O.3     1  ZINC000089894387   -0.3800
     22 C22        -2.9362    2.6813   51.5212 C.3     1  ZINC000089894387    0.0600
     23 C23        -4.2054    3.1057   52.2647 C.3     1  ZINC000089894387   -0.1500
     24 H24        -6.9728    4.6075   50.9354 H       1  ZINC000089894387    0.0600
     25 H25        -7.8054    4.7808   52.4991 H       1  ZINC000089894387    0.0600
     26 H26        -6.0406    4.9911   52.4024 H       1  ZINC000089894387    0.0700
     27 H27        -8.2311    2.4459   50.8923 H       1  ZINC000089894387    0.3900
     28 H28        -9.8099    0.7405   51.1118 H       1  ZINC000089894387    0.4000
     29 H29        -9.2308   -1.3732   52.8993 H       1  ZINC000089894387    0.0800
     30 H30       -10.3545   -0.2467   53.6970 H       1  ZINC000089894387    0.0900
     31 H31       -12.0055   -0.5359   51.9626 H       1  ZINC000089894387    0.0900
     32 H32       -10.8540   -1.4155   50.9289 H       1  ZINC000089894387    0.0700
     33 H33       -13.5794   -1.0867   53.5027 H       1  ZINC000089894387    0.1300
     34 H34       -14.2647   -0.9909   55.8647 H       1  ZINC000089894387    0.1400
     35 H35       -13.0076   -2.2495   57.5652 H       1  ZINC000089894387    0.1400
     36 H36       -10.3728   -3.7125   54.5453 H       1  ZINC000089894387    0.1400
     37 H37        -5.3515    1.3787   51.6681 H       1  ZINC000089894387    0.0800
     38 H38        -6.2793    2.3759   49.6136 H       1  ZINC000089894387    0.0700
     39 H39        -5.5691    3.9532   50.0378 H       1  ZINC000089894387    0.0800
     40 H40        -4.0300    1.3727   49.4948 H       1  ZINC000089894387    0.0500
     41 H41        -4.1269    2.7838   48.4139 H       1  ZINC000089894387    0.0900
     42 H42        -2.8196    1.5996   51.5892 H       1  ZINC000089894387    0.0500
     43 H43        -2.0713    3.1692   51.9705 H       1  ZINC000089894387    0.1000
     44 H44        -4.3012    4.1910   52.2316 H       1  ZINC000089894387    0.0800
     45 H45        -4.1476    2.7756   53.3019 H       1  ZINC000089894387    0.0800
@<TRIPOS>BOND
     1     1     2    1
     2     1    24    1
     3     1    25    1
     4     1    26    1
     5     2     3    1
     6     2     4    1
     7     2    18    1
     8     4     5   am
     9     4    27    1
    10     5     6    2
    11     5     7   am
    12     7     8    1
    13     7    28    1
    14     8     9    1
    15     8    29    1
    16     8    30    1
    17     9    10    1
    18     9    31    1
    19     9    32    1
    20    10    11    1
    21    11    17   ar
    22    11    12   ar
    23    12    13   ar
    24    12    33    1
    25    13    14   ar
    26    13    34    1
    27    14    15   ar
    28    14    35    1
    29    15    16    1
    30    15    17   ar
    31    17    36    1
    32    18    23    1
    33    18    19    1
    34    18    37    1
    35    19    20    1
    36    19    38    1
    37    19    39    1
    38    20    21    1
    39    20    40    1
    40    20    41    1
    41    21    22    1
    42    22    23    1
    43    22    42    1
    44    22    43    1
    45    23    44    1
    46    23    45    1
@<TRIPOS>SUBSTRUCTURE
     1 ZINC000089894387        1 TEMP              0 ****  ****    0 ROOT


##########                                Name:    ZINC000546115054
##########                DOCK_Rotatable_Bonds:                  10
##########                         Heavy_Atoms:                  26
##########                    Molecular_Weight:             363.457
##########                DOCK_Rotatable_Bonds:                  10
##########                       Formal_Charge:        -4.39584e-07
##########                     HBond_Acceptors:                   7
##########                        HBond_Donors:                   2
##########                         Heavy_Atoms:                  26
##########                          Grid_Score:          -29.397739
##########                     Grid_vdw_energy:          -28.396942
##########                      Grid_es_energy:           -1.000797
##########           Internal_energy_repulsive:           96.574211

@<TRIPOS>MOLECULE
ZINC000546115054
 55 56 1 0 0
SMALL
USER_CHARGES


@<TRIPOS>ATOM
      1 C1         -7.8392    1.7691   57.0393 C.3     1  ZINC000546115054   -0.1500
      2 C2         -8.6606    1.4191   58.2817 C.3     1  ZINC000546115054    0.0600
      3 O3         -8.6473    0.0037   58.4783 O.3     1  ZINC000546115054   -0.3700
      4 C4         -9.7480   -0.4869   59.2462 C.3     1  ZINC000546115054    0.0500
      5 H5        -10.3612    0.3503   59.5799 H       1  ZINC000546115054    0.0700
      6 C6         -9.2222   -1.2527   60.4630 C.3     1  ZINC000546115054    0.0400
      7 O7        -10.3233   -1.7913   61.1975 O.3     1  ZINC000546115054   -0.3700
      8 C8        -11.1216   -2.7170   60.4573 C.3     1  ZINC000546115054    0.0600
      9 C9        -11.7237   -2.0100   59.2402 C.3     1  ZINC000546115054   -0.1600
     10 C10       -10.5937   -1.4293   58.3843 C.3     1  ZINC000546115054    0.1700
     11 H11        -9.9674   -2.2388   58.0093 H       1  ZINC000546115054    0.1000
     12 N12       -11.1644   -0.6884   57.2566 N.am    1  ZINC000546115054   -0.7300
     13 C13       -11.4771   -1.3338   56.1154 C.2     1  ZINC000546115054    0.7200
     14 O14       -11.2844   -2.5306   56.0215 O.2     1  ZINC000546115054   -0.5900
     15 N15       -12.0036   -0.6524   55.0786 N.am    1  ZINC000546115054   -0.7200
     16 C16       -12.3419   -1.3536   53.8375 C.3     1  ZINC000546115054    0.1600
     17 H17       -12.7191   -2.3486   54.0737 H       1  ZINC000546115054    0.1200
     18 C18       -13.4160   -0.5668   53.0837 C.3     1  ZINC000546115054   -0.1000
     19 C19       -13.0849    0.9027   53.1263 C.ar    1  ZINC000546115054   -0.0800
     20 C20       -12.3408    1.4734   52.1105 C.ar    1  ZINC000546115054   -0.1100
     21 C21       -12.0372    2.8213   52.1497 C.ar    1  ZINC000546115054   -0.1200
     22 C22       -12.4776    3.5988   53.2043 C.ar    1  ZINC000546115054   -0.1200
     23 C23       -13.2224    3.0285   54.2196 C.ar    1  ZINC000546115054   -0.1200
     24 C24       -13.5299    1.6814   54.1784 C.ar    1  ZINC000546115054   -0.1100
     25 C25       -11.1107   -1.4742   52.9769 C.2     1  ZINC000546115054    0.5000
     26 O26       -10.9875   -2.4165   52.2234 O.2     1  ZINC000546115054   -0.5200
     27 N27       -10.1466   -0.5348   53.0446 N.am    1  ZINC000546115054   -0.6200
     28 C28       -10.2963    0.6044   53.9535 C.3     1  ZINC000546115054    0.0800
     29 C29        -8.9489   -0.6530   52.2093 C.3     1  ZINC000546115054    0.0700
     30 H30        -7.8494    2.8487   56.8892 H       1  ZINC000546115054    0.0700
     31 H31        -6.8121    1.4309   57.1757 H       1  ZINC000546115054    0.0600
     32 H32        -8.2710    1.2771   56.1677 H       1  ZINC000546115054    0.0600
     33 H33        -8.2289    1.9112   59.1533 H       1  ZINC000546115054    0.0500
     34 H34        -9.6878    1.7573   58.1452 H       1  ZINC000546115054    0.0500
     35 H35        -8.5755   -2.0644   60.1300 H       1  ZINC000546115054    0.0600
     36 H36        -8.6557   -0.5752   61.1020 H       1  ZINC000546115054    0.1000
     37 H37       -10.4997   -3.5480   60.1241 H       1  ZINC000546115054    0.0600
     38 H38       -11.9232   -3.0944   61.0919 H       1  ZINC000546115054    0.1000
     39 H39       -12.2969   -2.7251   58.6502 H       1  ZINC000546115054    0.0900
     40 H40       -12.3777   -1.2043   59.5737 H       1  ZINC000546115054    0.0800
     41 H41       -11.3170    0.2666   57.3311 H       1  ZINC000546115054    0.3900
     42 H42       -12.1585    0.3021   55.1540 H       1  ZINC000546115054    0.4000
     43 H43       -13.4511   -0.9014   52.0470 H       1  ZINC000546115054    0.0900
     44 H44       -14.3855   -0.7345   53.5527 H       1  ZINC000546115054    0.1100
     45 H45       -11.9968    0.8659   51.2866 H       1  ZINC000546115054    0.1200
     46 H46       -11.4552    3.2670   51.3564 H       1  ZINC000546115054    0.1200
     47 H47       -12.2397    4.6518   53.2352 H       1  ZINC000546115054    0.1200
     48 H48       -13.5663    3.6359   55.0437 H       1  ZINC000546115054    0.1200
     49 H49       -14.1117    1.2357   54.9717 H       1  ZINC000546115054    0.1200
     50 H50        -9.8667    0.3541   54.9235 H       1  ZINC000546115054    0.0600
     51 H51        -9.7792    1.4699   53.5393 H       1  ZINC000546115054    0.0700
     52 H52       -11.3545    0.8365   54.0737 H       1  ZINC000546115054    0.0800
     53 H53        -9.1186   -0.1497   51.2575 H       1  ZINC000546115054    0.0600
     54 H54        -8.1034   -0.1910   52.7190 H       1  ZINC000546115054    0.0800
     55 H55        -8.7335   -1.7063   52.0298 H       1  ZINC000546115054    0.0700
@<TRIPOS>BOND
     1     1     2    1
     2     1    30    1
     3     1    31    1
     4     1    32    1
     5     2     3    1
     6     2    33    1
     7     2    34    1
     8     3     4    1
     9     4     5    1
    10     4    10    1
    11     4     6    1
    12     6     7    1
    13     6    35    1
    14     6    36    1
    15     7     8    1
    16     8     9    1
    17     8    37    1
    18     8    38    1
    19     9    10    1
    20     9    39    1
    21     9    40    1
    22    10    11    1
    23    10    12    1
    24    12    13   am
    25    12    41    1
    26    13    14    2
    27    13    15   am
    28    15    16    1
    29    15    42    1
    30    16    17    1
    31    16    18    1
    32    16    25    1
    33    18    19    1
    34    18    43    1
    35    18    44    1
    36    19    24   ar
    37    19    20   ar
    38    20    21   ar
    39    20    45    1
    40    21    22   ar
    41    21    46    1
    42    22    23   ar
    43    22    47    1
    44    23    24   ar
    45    23    48    1
    46    24    49    1
    47    25    26    2
    48    25    27   am
    49    27    28    1
    50    27    29    1
    51    28    50    1
    52    28    51    1
    53    28    52    1
    54    29    53    1
    55    29    54    1
    56    29    55    1
@<TRIPOS>SUBSTRUCTURE
     1 ZINC000546115054        1 TEMP              0 ****  ****    0 ROOT


##########                                Name:    ZINC000750807956
##########                DOCK_Rotatable_Bonds:                  11
##########                         Heavy_Atoms:                  26
##########                    Molecular_Weight:             368.473
##########                DOCK_Rotatable_Bonds:                  11
##########                       Formal_Charge:        -8.12113e-07
##########                     HBond_Acceptors:                   7
##########                        HBond_Donors:                   1
##########                         Heavy_Atoms:                  26
##########                          Grid_Score:          -29.363811
##########                     Grid_vdw_energy:          -28.704275
##########                      Grid_es_energy:           -0.659537
##########           Internal_energy_repulsive:           75.489380

@<TRIPOS>MOLECULE
ZINC000750807956
 58 59 1 0 0
SMALL
USER_CHARGES


@<TRIPOS>ATOM
      1 C1        -11.4888   -2.5511   53.4555 C.3     1  ZINC000750807956   -0.1500
      2 C2        -11.8954   -1.6185   54.5983 C.3     1  ZINC000750807956    0.0700
      3 O3        -11.0648   -1.8845   55.7591 O.3     1  ZINC000750807956   -0.3600
      4 C4        -11.4941   -1.4076   56.9380 C.2     1  ZINC000750807956    0.4800
      5 O5        -12.4955   -0.7333   56.9882 O.2     1  ZINC000750807956   -0.4900
      6 C6        -10.7273   -1.7129   58.1988 C.3     1  ZINC000750807956    0.1600
      7 H7        -10.1648   -2.6376   58.0695 H       1  ZINC000750807956    0.1000
      8 C8        -11.7036   -1.8653   59.3694 C.3     1  ZINC000750807956   -0.1300
      9 C9        -10.9131   -2.0365   60.6687 C.3     1  ZINC000750807956   -0.1200
     10 C10       -10.0554   -0.7930   60.9137 C.3     1  ZINC000750807956   -0.1400
     11 C11        -9.0604   -0.6285   59.7605 C.3     1  ZINC000750807956    0.1100
     12 N12        -9.8017   -0.6101   58.4916 N.am    1  ZINC000750807956   -0.6100
     13 C13        -9.6391    0.4014   57.6160 C.2     1  ZINC000750807956    0.5100
     14 O14       -10.2566    0.4051   56.5721 O.2     1  ZINC000750807956   -0.5000
     15 C15        -8.6901    1.5281   57.9339 C.3     1  ZINC000750807956   -0.1400
     16 C16        -8.7132    2.5508   56.7962 C.3     1  ZINC000750807956    0.2100
     17 H17        -9.7285    2.6423   56.4105 H       1  ZINC000750807956    0.1000
     18 N18        -7.8210    2.1069   55.7224 N.am    1  ZINC000750807956   -0.7000
     19 C19        -8.0067    2.5532   54.4643 C.2     1  ZINC000750807956    0.6600
     20 O20        -8.9132    3.3249   54.2209 O.2     1  ZINC000750807956   -0.5600
     21 O21        -7.1878    2.1440   53.4771 O.3     1  ZINC000750807956   -0.3700
     22 C22        -7.8087    1.7617   52.2214 C.3     1  ZINC000750807956    0.1400
     23 C23        -8.1685    3.0187   51.4268 C.3     1  ZINC000750807956   -0.1800
     24 C24        -6.8334    0.9070   51.4095 C.3     1  ZINC000750807956   -0.1400
     25 C25        -9.0785    0.9566   52.5047 C.3     1  ZINC000750807956   -0.1800
     26 C26        -8.2429    3.9087   57.3214 C.3     1  ZINC000750807956   -0.1800
     27 C27        -9.0501    5.1424   56.9125 C.3     1  ZINC000750807956   -0.1700
     28 C28        -9.1315    4.6158   58.3467 C.3     1  ZINC000750807956   -0.1800
     29 H29       -11.6214   -3.5871   53.7674 H       1  ZINC000750807956    0.0600
     30 H30       -12.1124   -2.3513   52.5842 H       1  ZINC000750807956    0.0800
     31 H31       -10.4429   -2.3793   53.2010 H       1  ZINC000750807956    0.0700
     32 H32       -11.7628   -0.5825   54.2863 H       1  ZINC000750807956    0.0700
     33 H33       -12.9413   -1.7903   54.8528 H       1  ZINC000750807956    0.0600
     34 H34       -12.3297   -0.9757   59.4391 H       1  ZINC000750807956    0.0800
     35 H35       -12.3318   -2.7411   59.2077 H       1  ZINC000750807956    0.0800
     36 H36       -11.6054   -2.1697   61.5000 H       1  ZINC000750807956    0.0800
     37 H37       -10.2688   -2.9121   60.5890 H       1  ZINC000750807956    0.0700
     38 H38       -10.6970    0.0865   60.9688 H       1  ZINC000750807956    0.0700
     39 H39        -9.5105   -0.9056   61.8509 H       1  ZINC000750807956    0.0800
     40 H40        -8.5153    0.3079   59.8790 H       1  ZINC000750807956    0.0900
     41 H41        -8.3602   -1.4638   59.7601 H       1  ZINC000750807956    0.0800
     42 H42        -8.9965    2.0102   58.8622 H       1  ZINC000750807956    0.1200
     43 H43        -7.6807    1.1321   58.0461 H       1  ZINC000750807956    0.1100
     44 H44        -7.0966    1.4918   55.9168 H       1  ZINC000750807956    0.4000
     45 H45        -7.2640    3.5923   51.2250 H       1  ZINC000750807956    0.0600
     46 H46        -8.6347    2.7317   50.4843 H       1  ZINC000750807956    0.0700
     47 H47        -8.8634    3.6276   52.0052 H       1  ZINC000750807956    0.0900
     48 H48        -6.5770    0.0114   51.9756 H       1  ZINC000750807956    0.0700
     49 H49        -7.2994    0.6199   50.4670 H       1  ZINC000750807956    0.0800
     50 H50        -5.9287    1.4806   51.2077 H       1  ZINC000750807956    0.0700
     51 H51        -9.7734    1.5655   53.0831 H       1  ZINC000750807956    0.0900
     52 H52        -9.5446    0.6695   51.5621 H       1  ZINC000750807956    0.0700
     53 H53        -8.8222    0.0610   53.0708 H       1  ZINC000750807956    0.0600
     54 H54        -7.1640    4.0245   57.4255 H       1  ZINC000750807956    0.1100
     55 H55        -8.5025    6.0702   56.7473 H       1  ZINC000750807956    0.0900
     56 H56        -9.9162    4.9866   56.2693 H       1  ZINC000750807956    0.0900
     57 H57       -10.0512    4.1136   58.6470 H       1  ZINC000750807956    0.1200
     58 H58        -8.6373    5.1971   59.1251 H       1  ZINC000750807956    0.0900
@<TRIPOS>BOND
     1     1     2    1
     2     1    29    1
     3     1    30    1
     4     1    31    1
     5     2     3    1
     6     2    32    1
     7     2    33    1
     8     3     4    1
     9     4     5    2
    10     4     6    1
    11     6     7    1
    12     6    12    1
    13     6     8    1
    14     8     9    1
    15     8    34    1
    16     8    35    1
    17     9    10    1
    18     9    36    1
    19     9    37    1
    20    10    11    1
    21    10    38    1
    22    10    39    1
    23    11    12    1
    24    11    40    1
    25    11    41    1
    26    12    13   am
    27    13    14    2
    28    13    15    1
    29    15    16    1
    30    15    42    1
    31    15    43    1
    32    16    17    1
    33    16    18    1
    34    16    26    1
    35    18    19   am
    36    18    44    1
    37    19    20    2
    38    19    21    1
    39    21    22    1
    40    22    23    1
    41    22    24    1
    42    22    25    1
    43    23    45    1
    44    23    46    1
    45    23    47    1
    46    24    48    1
    47    24    49    1
    48    24    50    1
    49    25    51    1
    50    25    52    1
    51    25    53    1
    52    26    28    1
    53    26    27    1
    54    26    54    1
    55    27    28    1
    56    27    55    1
    57    27    56    1
    58    28    57    1
    59    28    58    1
@<TRIPOS>SUBSTRUCTURE
     1 ZINC000750807956        1 TEMP              0 ****  ****    0 ROOT


##########                                Name:    ZINC001199210165
##########                DOCK_Rotatable_Bonds:                   5
##########                         Heavy_Atoms:                  23
##########                    Molecular_Weight:             375.225
##########                DOCK_Rotatable_Bonds:                   5
##########                       Formal_Charge:         -0.00999999
##########                     HBond_Acceptors:                   6
##########                        HBond_Donors:                   2
##########                         Heavy_Atoms:                  23
##########                          Grid_Score:          -29.357605
##########                     Grid_vdw_energy:          -29.274448
##########                      Grid_es_energy:           -0.083156
##########           Internal_energy_repulsive:           16.913214

@<TRIPOS>MOLECULE
ZINC001199210165
 38 40 1 0 0
SMALL
USER_CHARGES


@<TRIPOS>ATOM
      1 C1        -15.1046   -3.6187   56.8345 C.3     1  ZINC001199210165   -0.1700
      2 C2        -14.0457   -4.6282   56.3865 C.3     1  ZINC001199210165    0.0800
      3 C3        -14.6848   -6.0118   56.2519 C.3     1  ZINC001199210165   -0.1500
      4 O4        -13.5086   -4.2268   55.1245 O.3     1  ZINC001199210165   -0.3000
      5 C5        -12.6597   -3.1683   55.1250 C.ar    1  ZINC001199210165    0.3300
      6 C6        -12.2739   -2.5985   56.3308 C.ar    1  ZINC001199210165   -0.1300
      7 C7        -11.3998   -1.5098   56.3149 C.ar    1  ZINC001199210165   -0.0600
      8 C8        -10.9598   -0.8692   57.5759 C.2     1  ZINC001199210165    0.5700
      9 O9        -10.3242    0.1660   57.5420 O.2     1  ZINC001199210165   -0.4900
     10 N10       -11.2641   -1.4346   58.7609 N.am    1  ZINC001199210165   -0.6600
     11 C11       -10.8488   -0.8300   59.9511 C.ar    1  ZINC001199210165    0.2000
     12 C12       -11.6127    0.1958   60.5100 C.ar    1  ZINC001199210165   -0.1500
     13 C13       -11.2235    0.7967   61.6702 C.ar    1  ZINC001199210165   -0.0200
     14 C14       -10.0487    0.3841   62.3091 C.ar    1  ZINC001199210165   -0.1700
     15 C15        -9.3604    0.7997   63.5279 C.2     1  ZINC001199210165    0.0900
     16 Br16       -9.9223    2.1585   64.7169 Br      1  ZINC001199210165    0.0600
     17 N17        -8.2902    0.0668   63.6503 N.2     1  ZINC001199210165   -0.2100
     18 N18        -8.1995   -0.8332   62.5835 N.pl3   1  ZINC001199210165   -0.4900
     19 C19        -9.2729   -0.6507   61.7506 C.ar    1  ZINC001199210165    0.1500
     20 C20        -9.6874   -1.2567   60.5686 C.ar    1  ZINC001199210165   -0.1700
     21 C21       -10.9503   -1.0404   55.0755 C.ar    1  ZINC001199210165   -0.1900
     22 C22       -11.3831   -1.6648   53.9234 C.ar    1  ZINC001199210165    0.1400
     23 N23       -12.2053   -2.6947   53.9773 N.ar    1  ZINC001199210165   -0.5200
     24 H24       -15.9045   -3.5790   56.0951 H       1  ZINC001199210165    0.0600
     25 H25       -15.5142   -3.9248   57.7970 H       1  ZINC001199210165    0.0700
     26 H26       -14.6493   -2.6330   56.9303 H       1  ZINC001199210165    0.0600
     27 H27       -13.2458   -4.6678   57.1258 H       1  ZINC001199210165    0.0900
     28 H28       -15.4848   -5.9721   55.5126 H       1  ZINC001199210165    0.0700
     29 H29       -13.9304   -6.7310   55.9328 H       1  ZINC001199210165    0.0600
     30 H30       -15.0945   -6.3179   57.2145 H       1  ZINC001199210165    0.0800
     31 H31       -12.6443   -2.9910   57.2664 H       1  ZINC001199210165    0.1600
     32 H32       -11.7715   -2.2609   58.7880 H       1  ZINC001199210165    0.4100
     33 H33       -12.5196    0.5166   60.0190 H       1  ZINC001199210165    0.1500
     34 H34       -11.8205    1.5899   62.0954 H       1  ZINC001199210165    0.1400
     35 H35        -7.4907   -1.4827   62.4540 H       1  ZINC001199210165    0.4500
     36 H36        -9.1032   -2.0543   60.1340 H       1  ZINC001199210165    0.1400
     37 H37       -10.2738   -0.2002   55.0214 H       1  ZINC001199210165    0.1400
     38 H38       -11.0404   -1.3074   52.9636 H       1  ZINC001199210165    0.1700
@<TRIPOS>BOND
     1     1     2    1
     2     1    24    1
     3     1    25    1
     4     1    26    1
     5     2     3    1
     6     2     4    1
     7     2    27    1
     8     3    28    1
     9     3    29    1
    10     3    30    1
    11     4     5    1
    12     5    23   ar
    13     5     6   ar
    14     6     7   ar
    15     6    31    1
    16     7     8    1
    17     7    21   ar
    18     8     9    2
    19     8    10   am
    20    10    11    1
    21    10    32    1
    22    11    20   ar
    23    11    12   ar
    24    12    13   ar
    25    12    33    1
    26    13    14   ar
    27    13    34    1
    28    14    19   ar
    29    14    15    1
    30    15    16    1
    31    15    17    2
    32    17    18    1
    33    18    19    1
    34    18    35    1
    35    19    20   ar
    36    20    36    1
    37    21    22   ar
    38    21    37    1
    39    22    23   ar
    40    22    38    1
@<TRIPOS>SUBSTRUCTURE
     1 ZINC001199210165        1 TEMP              0 ****  ****    0 ROOT


##########                                Name:    ZINC000416583757
##########                DOCK_Rotatable_Bonds:                   7
##########                         Heavy_Atoms:                  20
##########                    Molecular_Weight:             380.693
##########                DOCK_Rotatable_Bonds:                   7
##########                       Formal_Charge:         1.04308e-07
##########                     HBond_Acceptors:                   7
##########                        HBond_Donors:                   1
##########                         Heavy_Atoms:                  20
##########                          Grid_Score:          -29.354630
##########                     Grid_vdw_energy:          -30.001261
##########                      Grid_es_energy:            0.646632
##########           Internal_energy_repulsive:            7.208493

@<TRIPOS>MOLECULE
ZINC000416583757
 35 35 1 0 0
SMALL
USER_CHARGES


@<TRIPOS>ATOM
      1 C1        -11.6763    1.2126   63.5402 C.3     1  ZINC000416583757   -0.1500
      2 C2        -10.5729    1.0929   62.4871 C.3     1  ZINC000416583757   -0.0200
      3 H3        -10.2823    2.0882   62.1507 H       1  ZINC000416583757    0.1200
      4 C4         -9.4065    0.4131   63.0738 C.1     1  ZINC000416583757    0.2100
      5 N5         -8.5063   -0.1115   63.5264 N.1     1  ZINC000416583757   -0.4200
      6 C6        -11.0898    0.2829   61.2965 C.3     1  ZINC000416583757    0.1300
      7 N7        -10.1002    0.3165   60.2167 N.am    1  ZINC000416583757   -1.0100
      8 C8         -9.7667    1.5870   59.5680 C.3     1  ZINC000416583757    0.0800
      9 S9         -9.3588   -1.0817   59.7293 S.o2    1  ZINC000416583757    2.7800
     10 O10        -8.5842   -0.7475   58.5858 O.2     1  ZINC000416583757   -0.9700
     11 O11        -8.8052   -1.6708   60.8979 O.2     1  ZINC000416583757   -0.9700
     12 N12       -10.5467   -2.1097   59.2053 N.am    1  ZINC000416583757   -1.1300
     13 C13       -11.4134   -1.7198   58.0905 C.3     1  ZINC000416583757    0.1600
     14 C14       -12.7179   -2.4686   58.1826 C.ar    1  ZINC000416583757   -0.0800
     15 C15       -13.6535   -2.1116   59.1350 C.ar    1  ZINC000416583757   -0.0800
     16 C16       -14.8518   -2.7986   59.2196 C.ar    1  ZINC000416583757   -0.0300
     17 Cl17      -16.0273   -2.3497   60.4156 Cl      1  ZINC000416583757   -0.0500
     18 C18       -15.1128   -3.8426   58.3508 C.ar    1  ZINC000416583757   -0.0700
     19 C19       -14.1759   -4.1994   57.3977 C.ar    1  ZINC000416583757   -0.0800
     20 Br20      -14.5320   -5.6267   56.2095 Br      1  ZINC000416583757   -0.0300
     21 C21       -12.9807   -3.5087   57.3106 C.ar    1  ZINC000416583757   -0.0700
     22 H22       -11.2731    1.6824   64.4372 H       1  ZINC000416583757    0.0700
     23 H23       -12.4904    1.8209   63.1459 H       1  ZINC000416583757    0.0800
     24 H24       -12.0517    0.2196   63.7876 H       1  ZINC000416583757    0.0700
     25 H25       -11.2568   -0.7493   61.6043 H       1  ZINC000416583757    0.0900
     26 H26       -12.0271    0.7131   60.9439 H       1  ZINC000416583757    0.1000
     27 H27        -8.9375    2.0579   60.0961 H       1  ZINC000416583757    0.0700
     28 H28        -9.4802    1.4022   58.5328 H       1  ZINC000416583757    0.0800
     29 H29       -10.6344    2.2463   59.5926 H       1  ZINC000416583757    0.0800
     30 H30       -10.6687   -2.9699   59.6366 H       1  ZINC000416583757    0.4200
     31 H31       -11.6057   -0.6479   58.1373 H       1  ZINC000416583757    0.0800
     32 H32       -10.9224   -1.9598   57.1473 H       1  ZINC000416583757    0.1000
     33 H33       -13.4494   -1.2966   59.8135 H       1  ZINC000416583757    0.1500
     34 H34       -16.0477   -4.3794   58.4166 H       1  ZINC000416583757    0.1500
     35 H35       -12.2492   -3.7873   56.5665 H       1  ZINC000416583757    0.1400
@<TRIPOS>BOND
     1     1     2    1
     2     1    22    1
     3     1    23    1
     4     1    24    1
     5     2     3    1
     6     2     4    1
     7     2     6    1
     8     4     5    3
     9     6     7    1
    10     6    25    1
    11     6    26    1
    12     7     8    1
    13     7     9   am
    14     8    27    1
    15     8    28    1
    16     8    29    1
    17     9    10    2
    18     9    11    2
    19     9    12   am
    20    12    13    1
    21    12    30    1
    22    13    14    1
    23    13    31    1
    24    13    32    1
    25    14    21   ar
    26    14    15   ar
    27    15    16   ar
    28    15    33    1
    29    16    17    1
    30    16    18   ar
    31    18    19   ar
    32    18    34    1
    33    19    20    1
    34    19    21   ar
    35    21    35    1
@<TRIPOS>SUBSTRUCTURE
     1 ZINC000416583757        1 TEMP              0 ****  ****    0 ROOT


##########                                Name:    ZINC000876376999
##########                DOCK_Rotatable_Bonds:                   7
##########                         Heavy_Atoms:                  24
##########                    Molecular_Weight:             358.502
##########                DOCK_Rotatable_Bonds:                   7
##########                       Formal_Charge:          -0.0299994
##########                     HBond_Acceptors:                   7
##########                        HBond_Donors:                   2
##########                         Heavy_Atoms:                  24
##########                          Grid_Score:          -29.353994
##########                     Grid_vdw_energy:          -28.866484
##########                      Grid_es_energy:           -0.487511
##########           Internal_energy_repulsive:           33.157337

@<TRIPOS>MOLECULE
ZINC000876376999
 54 56 1 0 0
SMALL
USER_CHARGES


@<TRIPOS>ATOM
      1 C1         -2.8599    2.4497   49.9977 C.3     1  ZINC000876376999   -0.1500
      2 C2         -3.2597    3.2445   51.2425 C.3     1  ZINC000876376999   -0.1100
      3 C3         -4.7830    3.2369   51.3848 C.3     1  ZINC000876376999   -0.0700
      4 C4         -5.1642    3.6256   52.8147 C.3     1  ZINC000876376999    0.0900
      5 O5         -4.4493    2.8028   53.7387 O.3     1  ZINC000876376999   -0.5600
      6 C6         -5.3929    4.2395   50.4025 C.3     1  ZINC000876376999   -0.1100
      7 C7         -6.9144    4.2566   50.5670 C.3     1  ZINC000876376999   -0.1400
      8 C8         -7.4741    2.8664   50.2489 C.3     1  ZINC000876376999    0.1100
      9 N9         -6.7872    1.8764   51.0897 N.am    1  ZINC000876376999   -0.6300
     10 C10        -7.4909    1.0220   51.8586 C.2     1  ZINC000876376999    0.7100
     11 O11        -6.9108    0.2072   52.5499 O.2     1  ZINC000876376999   -0.5800
     12 N12        -8.8379    1.0708   51.8611 N.am    1  ZINC000876376999   -0.7500
     13 C13        -9.6028    0.1421   52.6969 C.3     1  ZINC000876376999    0.1400
     14 C14       -11.0897    0.5140   52.6453 C.3     1  ZINC000876376999   -0.1100
     15 C15       -11.8767   -0.5664   51.9547 C.3     1  ZINC000876376999   -0.1100
     16 C16       -12.6087   -1.5537   52.8712 C.3     1  ZINC000876376999   -0.5200
     17 H17       -13.1477   -2.3423   52.3279 H       1  ZINC000876376999    0.1500
     18 C18       -11.5753   -2.1088   53.8780 C.3     1  ZINC000876376999   -0.1200
     19 C19       -11.3767   -1.1520   55.0486 C.3     1  ZINC000876376999   -0.1200
     20 C20       -12.2645    0.1049   54.9003 C.3     1  ZINC000876376999   -0.5300
     21 H21       -12.5477    0.5486   55.8650 H       1  ZINC000876376999    0.1500
     22 C22       -11.5355    1.0782   53.9667 C.3     1  ZINC000876376999   -0.1000
     23 S23       -13.7031   -0.5333   53.9444 S.o2    1  ZINC000876376999    2.3700
     24 O24       -14.2943    0.5139   53.1888 O.2     1  ZINC000876376999   -0.9300
     25 O25       -14.5033   -1.3721   54.7658 O.2     1  ZINC000876376999   -0.9300
     26 C26        -5.3185    1.8352   51.0760 C.3     1  ZINC000876376999    0.1400
     27 H27        -3.1361    1.4037   50.1303 H       1  ZINC000876376999    0.0500
     28 H28        -3.3761    2.8542   49.1271 H       1  ZINC000876376999    0.0600
     29 H29        -1.7828    2.5251   49.8491 H       1  ZINC000876376999    0.0500
     30 H30        -2.8101    2.7886   52.1246 H       1  ZINC000876376999    0.0600
     31 H31        -2.9090    4.2718   51.1458 H       1  ZINC000876376999    0.0700
     32 H32        -4.9096    4.6714   52.9871 H       1  ZINC000876376999    0.0500
     33 H33        -6.2358    3.4845   52.9562 H       1  ZINC000876376999    0.0400
     34 H34        -4.7384    1.8801   53.7492 H       1  ZINC000876376999    0.3800
     35 H35        -4.9946    5.2338   50.6043 H       1  ZINC000876376999    0.0700
     36 H36        -5.1412    3.9478   49.3828 H       1  ZINC000876376999    0.0700
     37 H37        -7.1663    4.5240   51.5932 H       1  ZINC000876376999    0.0700
     38 H38        -7.3461    4.9876   49.8834 H       1  ZINC000876376999    0.0800
     39 H39        -8.5432    2.8460   50.4598 H       1  ZINC000876376999    0.0700
     40 H40        -7.3022    2.6351   49.1978 H       1  ZINC000876376999    0.0700
     41 H41        -9.3007    1.7207   51.3095 H       1  ZINC000876376999    0.3900
     42 H42        -9.4694   -0.8743   52.3266 H       1  ZINC000876376999    0.0800
     43 H43        -9.2486    0.2032   53.7260 H       1  ZINC000876376999    0.0700
     44 H44       -11.1203    1.3885   51.9356 H       1  ZINC000876376999    0.0900
     45 H45       -12.6170   -0.0957   51.2843 H       1  ZINC000876376999    0.0900
     46 H46       -11.1998   -1.1365   51.2948 H       1  ZINC000876376999    0.0900
     47 H47       -11.9430   -3.0630   54.2679 H       1  ZINC000876376999    0.0800
     48 H48       -10.6272   -2.2853   53.3784 H       1  ZINC000876376999    0.0900
     49 H49       -11.6538   -1.6703   55.9718 H       1  ZINC000876376999    0.0800
     50 H50       -10.3320   -0.8631   55.1182 H       1  ZINC000876376999    0.0900
     51 H51       -10.6564    1.4822   54.4985 H       1  ZINC000876376999    0.0900
     52 H52       -12.1938    1.9450   53.7809 H       1  ZINC000876376999    0.0900
     53 H53        -4.9710    1.5198   50.0922 H       1  ZINC000876376999    0.0600
     54 H54        -4.9656    1.1344   51.8326 H       1  ZINC000876376999    0.1000
@<TRIPOS>BOND
     1     1     2    1
     2     1    27    1
     3     1    28    1
     4     1    29    1
     5     2     3    1
     6     2    30    1
     7     2    31    1
     8     3    26    1
     9     3     4    1
    10     3     6    1
    11     4     5    1
    12     4    32    1
    13     4    33    1
    14     5    34    1
    15     6     7    1
    16     6    35    1
    17     6    36    1
    18     7     8    1
    19     7    37    1
    20     7    38    1
    21     8     9    1
    22     8    39    1
    23     8    40    1
    24     9    10   am
    25     9    26    1
    26    10    11    2
    27    10    12   am
    28    12    13    1
    29    12    41    1
    30    13    14    1
    31    13    42    1
    32    13    43    1
    33    14    22    1
    34    14    15    1
    35    14    44    1
    36    15    16    1
    37    15    45    1
    38    15    46    1
    39    16    17    1
    40    16    23    1
    41    16    18    1
    42    18    19    1
    43    18    47    1
    44    18    48    1
    45    19    20    1
    46    19    49    1
    47    19    50    1
    48    20    21    1
    49    20    22    1
    50    20    23    1
    51    22    51    1
    52    22    52    1
    53    23    24    2
    54    23    25    2
    55    26    53    1
    56    26    54    1
@<TRIPOS>SUBSTRUCTURE
     1 ZINC000876376999        1 TEMP              0 ****  ****    0 ROOT


##########                                Name:    ZINC000545381384
##########                DOCK_Rotatable_Bonds:                   6
##########                         Heavy_Atoms:                  30
##########                    Molecular_Weight:             405.543
##########                DOCK_Rotatable_Bonds:                   6
##########                       Formal_Charge:                0.05
##########                     HBond_Acceptors:                   6
##########                        HBond_Donors:                   1
##########                         Heavy_Atoms:                  30
##########                          Grid_Score:          -29.331234
##########                     Grid_vdw_energy:          -27.977875
##########                      Grid_es_energy:           -1.353359
##########           Internal_energy_repulsive:           14.252884

@<TRIPOS>MOLECULE
ZINC000545381384
 61 64 1 0 0
SMALL
USER_CHARGES


@<TRIPOS>ATOM
      1 C1         -4.5129    1.8887   51.3679 C.3     1  ZINC000545381384   -0.2000
      2 C2         -5.2623    3.0749   51.9779 C.3     1  ZINC000545381384    0.0500
      3 N3         -6.6489    3.0800   51.4928 N.3     1  ZINC000545381384   -0.5300
      4 C4         -6.9341    4.3017   50.7240 C.3     1  ZINC000545381384    0.0500
      5 C5         -8.2289    4.0921   49.9395 C.3     1  ZINC000545381384   -0.0700
      6 C6         -9.3163    3.5971   50.8628 C.ar    1  ZINC000545381384    0.1800
      7 C7         -9.0119    3.0597   52.1079 C.ar    1  ZINC000545381384   -0.0800
      8 C8         -7.5952    2.9486   52.6052 C.3     1  ZINC000545381384    0.0900
      9 C9        -10.0386    2.6080   52.9333 C.ar    1  ZINC000545381384   -0.0700
     10 C10        -9.7464    2.0283   54.2617 C.2     1  ZINC000545381384    0.5800
     11 O11        -9.6347    0.8245   54.3882 O.2     1  ZINC000545381384   -0.4800
     12 N12        -9.6039    2.8345   55.3322 N.am    1  ZINC000545381384   -0.6400
     13 C13        -9.3269    2.2884   56.5837 C.2     1  ZINC000545381384    0.3000
     14 C14       -10.2428    1.8895   57.5091 C.2     1  ZINC000545381384   -0.2700
     15 C15        -9.5468    1.4025   58.6185 C.2     1  ZINC000545381384    0.1000
     16 C16       -10.1682    0.8560   59.8779 C.3     1  ZINC000545381384   -0.0300
     17 C17       -10.2095   -0.6718   59.8049 C.3     1  ZINC000545381384   -0.0600
     18 C18       -10.6583   -1.1036   58.4074 C.3     1  ZINC000545381384   -0.1500
     19 C19        -8.8152   -1.2338   60.0891 C.3     1  ZINC000545381384   -0.1400
     20 C20       -11.1963   -1.2056   60.8452 C.3     1  ZINC000545381384   -0.1400
     21 N21        -8.2644    1.5007   58.3786 N.2     1  ZINC000545381384   -0.2700
     22 N22        -8.0941    2.0510   57.1017 N.pl3   1  ZINC000545381384   -0.3900
     23 C23        -6.8140    2.3289   56.4455 C.3     1  ZINC000545381384    0.1000
     24 C24       -11.3705    2.7201   52.4651 C.ar    1  ZINC000545381384   -0.0700
     25 C25       -12.4579    2.2900   53.2361 C.ar    1  ZINC000545381384   -0.1100
     26 C26       -13.7233    2.4183   52.7470 C.ar    1  ZINC000545381384   -0.1000
     27 C27       -13.9496    2.9719   51.4885 C.ar    1  ZINC000545381384   -0.1000
     28 C28       -12.9163    3.3987   50.7130 C.ar    1  ZINC000545381384   -0.0900
     29 C29       -11.5954    3.2830   51.1844 C.ar    1  ZINC000545381384    0.1400
     30 N30       -10.5629    3.6916   50.4480 N.ar    1  ZINC000545381384   -0.4600
     31 H31        -5.0228    0.9621   51.6319 H       1  ZINC000545381384    0.0600
     32 H32        -4.4882    1.9935   50.2833 H       1  ZINC000545381384    0.0600
     33 H33        -3.4938    1.8653   51.7541 H       1  ZINC000545381384    0.0700
     34 H34        -5.2578    2.9876   53.0645 H       1  ZINC000545381384    0.0900
     35 H35        -4.7718    4.0036   51.6861 H       1  ZINC000545381384    0.0800
     36 H36        -7.0516    5.1441   51.4058 H       1  ZINC000545381384    0.0500
     37 H37        -6.1150    4.4986   50.0325 H       1  ZINC000545381384    0.0900
     38 H38        -8.5371    5.0365   49.4908 H       1  ZINC000545381384    0.1000
     39 H39        -8.0602    3.3572   49.1524 H       1  ZINC000545381384    0.1000
     40 H40        -7.4564    1.9791   53.0836 H       1  ZINC000545381384    0.0900
     41 H41        -7.4065    3.7369   53.3341 H       1  ZINC000545381384    0.0700
     42 H42        -9.6942    3.7951   55.2315 H       1  ZINC000545381384    0.4100
     43 H43       -11.3164    1.9408   57.4042 H       1  ZINC000545381384    0.1700
     44 H44        -9.5742    1.1626   60.7388 H       1  ZINC000545381384    0.0800
     45 H45       -11.1823    1.2423   59.9800 H       1  ZINC000545381384    0.0800
     46 H46        -9.9553   -0.7234   57.6663 H       1  ZINC000545381384    0.0500
     47 H47       -10.6877   -2.1920   58.3554 H       1  ZINC000545381384    0.0500
     48 H48       -11.6517   -0.7033   58.2049 H       1  ZINC000545381384    0.0800
     49 H49        -8.4954   -0.9262   61.0847 H       1  ZINC000545381384    0.0600
     50 H50        -8.8446   -2.3222   60.0371 H       1  ZINC000545381384    0.0600
     51 H51        -8.1121   -0.8535   59.3481 H       1  ZINC000545381384    0.0600
     52 H52       -12.1897   -0.8052   60.6426 H       1  ZINC000545381384    0.0500
     53 H53       -11.2257   -2.2939   60.7932 H       1  ZINC000545381384    0.0500
     54 H54       -10.8766   -0.8978   61.8407 H       1  ZINC000545381384    0.0500
     55 H55        -6.5002    1.4540   55.8759 H       1  ZINC000545381384    0.0800
     56 H56        -6.9276    3.1788   55.7726 H       1  ZINC000545381384    0.0800
     57 H57        -6.0619    2.5605   57.1996 H       1  ZINC000545381384    0.1000
     58 H58       -12.2944    1.8587   54.2127 H       1  ZINC000545381384    0.1300
     59 H59       -14.5612    2.0865   53.3421 H       1  ZINC000545381384    0.1300
     60 H60       -14.9616    3.0634   51.1225 H       1  ZINC000545381384    0.1400
     61 H61       -13.1092    3.8245   49.7395 H       1  ZINC000545381384    0.1400
@<TRIPOS>BOND
     1     1     2    1
     2     1    31    1
     3     1    32    1
     4     1    33    1
     5     2     3    1
     6     2    34    1
     7     2    35    1
     8     3     8    1
     9     3     4    1
    10     4     5    1
    11     4    36    1
    12     4    37    1
    13     5     6    1
    14     5    38    1
    15     5    39    1
    16     6    30   ar
    17     6     7   ar
    18     7     8    1
    19     7     9   ar
    20     8    40    1
    21     8    41    1
    22     9    10    1
    23     9    24   ar
    24    10    11    2
    25    10    12   am
    26    12    13    1
    27    12    42    1
    28    13    22    1
    29    13    14    2
    30    14    15    1
    31    14    43    1
    32    15    16    1
    33    15    21    2
    34    16    17    1
    35    16    44    1
    36    16    45    1
    37    17    18    1
    38    17    19    1
    39    17    20    1
    40    18    46    1
    41    18    47    1
    42    18    48    1
    43    19    49    1
    44    19    50    1
    45    19    51    1
    46    20    52    1
    47    20    53    1
    48    20    54    1
    49    21    22    1
    50    22    23    1
    51    23    55    1
    52    23    56    1
    53    23    57    1
    54    24    29   ar
    55    24    25   ar
    56    25    26   ar
    57    25    58    1
    58    26    27   ar
    59    26    59    1
    60    27    28   ar
    61    27    60    1
    62    28    29   ar
    63    28    61    1
    64    29    30   ar
@<TRIPOS>SUBSTRUCTURE
     1 ZINC000545381384        1 TEMP              0 ****  ****    0 ROOT


##########                                Name:    ZINC000151850193
##########                DOCK_Rotatable_Bonds:                  11
##########                         Heavy_Atoms:                  23
##########                    Molecular_Weight:             328.452
##########                DOCK_Rotatable_Bonds:                  11
##########                       Formal_Charge:            0.039999
##########                     HBond_Acceptors:                   6
##########                        HBond_Donors:                   2
##########                         Heavy_Atoms:                  23
##########                          Grid_Score:          -29.274155
##########                     Grid_vdw_energy:          -28.388838
##########                      Grid_es_energy:           -0.885316
##########           Internal_energy_repulsive:           53.055573

@<TRIPOS>MOLECULE
ZINC000151850193
 55 55 1 0 0
SMALL
USER_CHARGES


@<TRIPOS>ATOM
      1 C1        -11.3460   -2.6744   54.3074 C.3     1  ZINC000151850193   -0.1500
      2 C2        -12.4781   -1.9497   55.0384 C.3     1  ZINC000151850193   -0.1000
      3 C3        -13.0072   -2.8374   56.1666 C.3     1  ZINC000151850193   -0.0800
      4 C4        -11.9161   -3.2572   57.1536 C.3     1  ZINC000151850193   -0.1000
      5 C5        -11.2327   -2.0104   57.7189 C.3     1  ZINC000151850193   -0.1500
      6 C6        -14.2729   -2.2850   56.8430 C.3     1  ZINC000151850193    0.1400
      7 H7        -14.3731   -1.2024   56.7642 H       1  ZINC000151850193    0.1000
      8 N8        -14.4707   -2.7768   58.2087 N.am    1  ZINC000151850193   -0.7000
      9 C9        -15.6241   -2.5199   58.8570 C.2     1  ZINC000151850193    0.5200
     10 O10       -16.4975   -1.8802   58.3103 O.2     1  ZINC000151850193   -0.5300
     11 C11       -15.8283   -3.0273   60.2613 C.3     1  ZINC000151850193   -0.1500
     12 C12       -15.2181   -2.0370   61.2552 C.3     1  ZINC000151850193    0.1500
     13 N13       -13.7671   -1.9818   61.0610 N.am    1  ZINC000151850193   -0.7100
     14 C14       -13.1009   -0.8311   61.2821 C.2     1  ZINC000151850193    0.6500
     15 O15       -13.7041    0.1607   61.6409 O.2     1  ZINC000151850193   -0.5600
     16 O16       -11.7671   -0.7809   61.1052 O.3     1  ZINC000151850193   -0.3700
     17 C17       -11.0971    0.4484   61.4900 C.3     1  ZINC000151850193    0.1400
     18 C18        -9.5926    0.3055   61.2514 C.3     1  ZINC000151850193   -0.1800
     19 C19       -11.6384    1.6083   60.6519 C.3     1  ZINC000151850193   -0.1400
     20 C20       -11.3541    0.7269   62.9724 C.3     1  ZINC000151850193   -0.1800
     21 C21       -15.0797   -3.0567   55.7854 C.3     1  ZINC000151850193   -0.1700
     22 C22       -13.8758   -4.0070   55.6744 C.3     1  ZINC000151850193    0.0700
     23 H23       -13.6552   -4.3147   54.6521 H       1  ZINC000151850193    0.0800
     24 O24       -13.9283   -5.1065   56.5856 O.3     1  ZINC000151850193   -0.3700
     25 C25       -14.6235   -6.2480   56.0799 C.3     1  ZINC000151850193    0.0300
     26 H26       -10.5263   -2.8608   55.0012 H       1  ZINC000151850193    0.0600
     27 H27       -11.7144   -3.6230   53.9169 H       1  ZINC000151850193    0.0600
     28 H28       -10.9909   -2.0555   53.4834 H       1  ZINC000151850193    0.0600
     29 H29       -12.1014   -1.0162   55.4567 H       1  ZINC000151850193    0.0700
     30 H30       -13.2842   -1.7344   54.3371 H       1  ZINC000151850193    0.0700
     31 H31       -12.3628   -3.8275   57.9681 H       1  ZINC000151850193    0.0700
     32 H32       -11.1790   -3.8740   56.6396 H       1  ZINC000151850193    0.0700
     33 H33       -10.7241   -1.4787   56.9147 H       1  ZINC000151850193    0.0500
     34 H34       -11.9812   -1.3584   58.1692 H       1  ZINC000151850193    0.0500
     35 H35       -10.5058   -2.3060   58.4755 H       1  ZINC000151850193    0.0500
     36 H36       -13.7717   -3.2874   58.6463 H       1  ZINC000151850193    0.4100
     37 H37       -16.8953   -3.1295   60.4590 H       1  ZINC000151850193    0.1000
     38 H38       -15.3438   -3.9975   60.3712 H       1  ZINC000151850193    0.1000
     39 H39       -15.6446   -1.0475   61.0905 H       1  ZINC000151850193    0.0800
     40 H40       -15.4364   -2.3620   62.2724 H       1  ZINC000151850193    0.0800
     41 H41       -13.2857   -2.7733   60.7734 H       1  ZINC000151850193    0.4100
     42 H42        -9.4095    0.1071   60.1953 H       1  ZINC000151850193    0.0600
     43 H43        -9.0896    1.2283   61.5403 H       1  ZINC000151850193    0.0700
     44 H44        -9.2069   -0.5209   61.8485 H       1  ZINC000151850193    0.0900
     45 H45       -12.7103    1.7102   60.8219 H       1  ZINC000151850193    0.0700
     46 H46       -11.1355    2.5311   60.9408 H       1  ZINC000151850193    0.0800
     47 H47       -11.4554    1.4100   59.5959 H       1  ZINC000151850193    0.0700
     48 H48       -10.9685   -0.0995   63.5695 H       1  ZINC000151850193    0.0900
     49 H49       -10.8511    1.6497   63.2613 H       1  ZINC000151850193    0.0700
     50 H50       -12.4260    0.8287   63.1424 H       1  ZINC000151850193    0.0600
     51 H51       -15.9765   -3.5327   56.1820 H       1  ZINC000151850193    0.0800
     52 H52       -15.2693   -2.4842   54.8774 H       1  ZINC000151850193    0.1000
     53 H53       -15.6524   -5.9732   55.8476 H       1  ZINC000151850193    0.0400
     54 H54       -14.1294   -6.6031   55.1755 H       1  ZINC000151850193    0.0400
     55 H55       -14.6190   -7.0382   56.8306 H       1  ZINC000151850193    0.0900
@<TRIPOS>BOND
     1     1     2    1
     2     1    26    1
     3     1    27    1
     4     1    28    1
     5     2     3    1
     6     2    29    1
     7     2    30    1
     8     3    22    1
     9     3     4    1
    10     3     6    1
    11     4     5    1
    12     4    31    1
    13     4    32    1
    14     5    33    1
    15     5    34    1
    16     5    35    1
    17     6     7    1
    18     6     8    1
    19     6    21    1
    20     8     9   am
    21     8    36    1
    22     9    10    2
    23     9    11    1
    24    11    12    1
    25    11    37    1
    26    11    38    1
    27    12    13    1
    28    12    39    1
    29    12    40    1
    30    13    14   am
    31    13    41    1
    32    14    15    2
    33    14    16    1
    34    16    17    1
    35    17    18    1
    36    17    19    1
    37    17    20    1
    38    18    42    1
    39    18    43    1
    40    18    44    1
    41    19    45    1
    42    19    46    1
    43    19    47    1
    44    20    48    1
    45    20    49    1
    46    20    50    1
    47    21    22    1
    48    21    51    1
    49    21    52    1
    50    22    23    1
    51    22    24    1
    52    24    25    1
    53    25    53    1
    54    25    54    1
    55    25    55    1
@<TRIPOS>SUBSTRUCTURE
     1 ZINC000151850193        1 TEMP              0 ****  ****    0 ROOT


##########                                Name:    ZINC000676204775
##########                DOCK_Rotatable_Bonds:                   4
##########                         Heavy_Atoms:                  25
##########                    Molecular_Weight:             359.452
##########                DOCK_Rotatable_Bonds:                   4
##########                       Formal_Charge:          0.00999978
##########                     HBond_Acceptors:                   8
##########                        HBond_Donors:                   2
##########                         Heavy_Atoms:                  25
##########                          Grid_Score:          -29.268970
##########                     Grid_vdw_energy:          -28.963991
##########                      Grid_es_energy:           -0.304979
##########           Internal_energy_repulsive:           13.993094

@<TRIPOS>MOLECULE
ZINC000676204775
 46 49 1 0 0
SMALL
USER_CHARGES


@<TRIPOS>ATOM
      1 C1        -16.3419   -3.2982   57.0787 C.3     1  ZINC000676204775   -0.1600
      2 C2        -15.6460   -2.6476   58.2760 C.3     1  ZINC000676204775    0.1600
      3 C3        -16.1447   -3.2953   59.5694 C.3     1  ZINC000676204775   -0.1600
      4 N4        -14.1979   -2.8374   58.1616 N.pl3   1  ZINC000676204775   -0.3900
      5 N5        -13.5678   -3.8694   57.4584 N.2     1  ZINC000676204775   -0.2500
      6 C6        -12.2743   -3.7510   57.5537 C.2     1  ZINC000676204775    0.0900
      7 C7        -11.9932   -2.5727   58.3674 C.ar    1  ZINC000676204775   -0.2100
      8 C8        -10.8190   -1.9522   58.8073 C.ar    1  ZINC000676204775    0.0800
      9 C9        -10.8974   -0.8292   59.5794 C.ar    1  ZINC000676204775   -0.7200
     10 S10        -9.4195   -0.0464   60.1338 S.o2    1  ZINC000676204775    2.6900
     11 O11        -8.7199   -1.0116   60.9072 O.2     1  ZINC000676204775   -0.9300
     12 O12        -8.8561    0.5968   58.9988 O.2     1  ZINC000676204775   -0.9600
     13 N13        -9.8652    1.1574   61.1800 N.am    1  ZINC000676204775   -1.1100
     14 C14       -10.6126    0.8307   62.3969 C.3     1  ZINC000676204775    0.2400
     15 H15       -11.1990   -0.0741   62.2365 H       1  ZINC000676204775    0.1000
     16 C16       -11.5444    1.9936   62.7597 C.3     1  ZINC000676204775   -0.1200
     17 C17       -12.1434    1.7621   64.1487 C.3     1  ZINC000676204775   -0.1200
     18 C18       -11.0627    1.9631   65.2185 C.3     1  ZINC000676204775   -0.0400
     19 C19        -9.8580    1.1412   64.8313 C.2     1  ZINC000676204775   -0.2300
     20 C20        -8.8163    0.7738   65.6000 C.2     1  ZINC000676204775    0.0600
     21 N21        -7.9781    0.0431   64.8312 N.pl3   1  ZINC000676204775   -0.4800
     22 N22        -8.5300   -0.0373   63.5436 N.2     1  ZINC000676204775   -0.2400
     23 C23        -9.6528    0.6190   63.5426 C.2     1  ZINC000676204775    0.0500
     24 C24       -12.1315   -0.2975   59.9320 C.ar    1  ZINC000676204775    0.0100
     25 C25       -13.2921   -0.8855   59.5146 C.ar    1  ZINC000676204775   -0.1500
     26 C26       -13.2434   -2.0289   58.7213 C.ar    1  ZINC000676204775    0.1700
     27 H27       -15.9867   -2.8368   56.1573 H       1  ZINC000676204775    0.0600
     28 H28       -16.1154   -4.3642   57.0621 H       1  ZINC000676204775    0.0700
     29 H29       -17.4193   -3.1570   57.1639 H       1  ZINC000676204775    0.0800
     30 H30       -15.8726   -1.5815   58.2927 H       1  ZINC000676204775    0.1000
     31 H31       -15.9181   -4.3614   59.5527 H       1  ZINC000676204775    0.0700
     32 H32       -15.6490   -2.8318   60.4224 H       1  ZINC000676204775    0.0600
     33 H33       -17.2221   -3.1541   59.6545 H       1  ZINC000676204775    0.0800
     34 H34       -11.5408   -4.4078   57.1099 H       1  ZINC000676204775    0.2000
     35 H35        -9.8558   -2.3596   58.5378 H       1  ZINC000676204775    0.1500
     36 H36        -9.6315    2.0789   60.9871 H       1  ZINC000676204775    0.4200
     37 H37       -10.9785    2.9251   62.7596 H       1  ZINC000676204775    0.0800
     38 H38       -12.3470    2.0579   62.0250 H       1  ZINC000676204775    0.0800
     39 H39       -12.9552    2.4700   64.3161 H       1  ZINC000676204775    0.0700
     40 H40       -12.5311    0.7453   64.2116 H       1  ZINC000676204775    0.0700
     41 H41       -10.7879    3.0165   65.2703 H       1  ZINC000676204775    0.0700
     42 H42       -11.4377    1.6321   66.1869 H       1  ZINC000676204775    0.0700
     43 H43        -8.6756    1.0183   66.6425 H       1  ZINC000676204775    0.1800
     44 H44        -7.1420   -0.3556   65.1191 H       1  ZINC000676204775    0.4400
     45 H45       -12.1740    0.5914   60.5439 H       1  ZINC000676204775    0.1500
     46 H46       -14.2449   -0.4620   59.7958 H       1  ZINC000676204775    0.1300
@<TRIPOS>BOND
     1     1     2    1
     2     1    27    1
     3     1    28    1
     4     1    29    1
     5     2     3    1
     6     2     4    1
     7     2    30    1
     8     3    31    1
     9     3    32    1
    10     3    33    1
    11     4    26    1
    12     4     5    1
    13     5     6    2
    14     6     7    1
    15     6    34    1
    16     7    26   ar
    17     7     8   ar
    18     8     9   ar
    19     8    35    1
    20     9    10    1
    21     9    24   ar
    22    10    11    2
    23    10    12    2
    24    10    13   am
    25    13    14    1
    26    13    36    1
    27    14    15    1
    28    14    23    1
    29    14    16    1
    30    16    17    1
    31    16    37    1
    32    16    38    1
    33    17    18    1
    34    17    39    1
    35    17    40    1
    36    18    19    1
    37    18    41    1
    38    18    42    1
    39    19    23    1
    40    19    20    2
    41    20    21    1
    42    20    43    1
    43    21    22    1
    44    21    44    1
    45    22    23    2
    46    24    25   ar
    47    24    45    1
    48    25    26   ar
    49    25    46    1
@<TRIPOS>SUBSTRUCTURE
     1 ZINC000676204775        1 TEMP              0 ****  ****    0 ROOT


##########                                Name:    ZINC000179743483
##########                DOCK_Rotatable_Bonds:                   5
##########                         Heavy_Atoms:                  23
##########                    Molecular_Weight:             393.347
##########                DOCK_Rotatable_Bonds:                   5
##########                       Formal_Charge:          -0.0199999
##########                     HBond_Acceptors:                   4
##########                        HBond_Donors:                   0
##########                         Heavy_Atoms:                  23
##########                          Grid_Score:          -29.264582
##########                     Grid_vdw_energy:          -28.787767
##########                      Grid_es_energy:           -0.476815
##########           Internal_energy_repulsive:           26.752493

@<TRIPOS>MOLECULE
ZINC000179743483
 44 46 1 0 0
SMALL
USER_CHARGES


@<TRIPOS>ATOM
      1 C1        -12.8568   -0.6074   53.8291 C.3     1  ZINC000179743483   -0.1400
      2 C2        -11.5029   -1.1818   54.2510 C.3     1  ZINC000179743483   -0.1000
      3 H3        -11.1992   -0.7375   55.1990 H       1  ZINC000179743483    0.1000
      4 C4        -11.6208   -2.6987   54.4133 C.3     1  ZINC000179743483   -0.0700
      5 C5        -12.6149   -3.0117   55.5018 C.ar    1  ZINC000179743483   -0.0600
      6 C6        -12.6991   -2.1972   56.6158 C.ar    1  ZINC000179743483   -0.1100
      7 C7        -13.6110   -2.4837   57.6141 C.ar    1  ZINC000179743483   -0.0900
      8 C8        -14.4394   -3.5854   57.4987 C.ar    1  ZINC000179743483   -0.0900
      9 Br9       -15.6877   -3.9774   58.8639 Br      1  ZINC000179743483   -0.0500
     10 C10       -14.3548   -4.4000   56.3839 C.ar    1  ZINC000179743483   -0.0900
     11 C11       -13.4462   -4.1098   55.3836 C.ar    1  ZINC000179743483   -0.1100
     12 C12       -10.4733   -0.8679   53.1964 C.2     1  ZINC000179743483    0.5200
     13 O13       -10.1361   -1.7226   52.4048 O.2     1  ZINC000179743483   -0.5300
     14 N14        -9.9271    0.3626   53.1329 N.am    1  ZINC000179743483   -0.6100
     15 C15       -10.3254    1.4084   54.0849 C.3     1  ZINC000179743483    0.1000
     16 C16        -9.0675    1.9708   54.7544 C.3     1  ZINC000179743483   -0.1400
     17 C17        -8.0881    2.4417   53.6768 C.3     1  ZINC000179743483   -0.1100
     18 C18        -7.6799    1.2542   52.8020 C.3     1  ZINC000179743483   -0.0200
     19 H19        -7.2237    0.4840   53.4240 H       1  ZINC000179743483    0.0900
     20 C20        -6.6902    1.7123   51.7620 C.2     1  ZINC000179743483    0.0500
     21 N21        -6.9844    2.4184   50.7229 N.2     1  ZINC000179743483   -0.4700
     22 C22        -5.9952    2.7346   49.9116 C.2     1  ZINC000179743483    0.0400
     23 C23        -4.8001    2.2694   50.2873 C.2     1  ZINC000179743483   -0.2600
     24 S24        -5.0137    1.3779   51.7921 S.3     1  ZINC000179743483    0.1300
     25 C25        -8.9176    0.6819   52.1142 C.3     1  ZINC000179743483    0.1200
     26 H26       -13.1243   -0.9928   52.8453 H       1  ZINC000179743483    0.0700
     27 H27       -13.6172   -0.9000   54.5531 H       1  ZINC000179743483    0.0700
     28 H28       -12.7934    0.4800   53.7883 H       1  ZINC000179743483    0.0600
     29 H29       -11.9583   -3.1393   53.4753 H       1  ZINC000179743483    0.0900
     30 H30       -10.6481   -3.1121   54.6797 H       1  ZINC000179743483    0.0800
     31 H31       -12.0520   -1.3373   56.7060 H       1  ZINC000179743483    0.1300
     32 H32       -13.6765   -1.8476   58.4845 H       1  ZINC000179743483    0.1300
     33 H33       -15.0013   -5.2602   56.2933 H       1  ZINC000179743483    0.1300
     34 H34       -13.3801   -4.7457   54.5131 H       1  ZINC000179743483    0.1300
     35 H35       -10.8451    2.2065   53.5546 H       1  ZINC000179743483    0.0700
     36 H36       -10.9829    0.9817   54.8425 H       1  ZINC000179743483    0.0900
     37 H37        -9.3397    2.8124   55.3913 H       1  ZINC000179743483    0.0800
     38 H38        -8.5983    1.1938   55.3579 H       1  ZINC000179743483    0.0700
     39 H39        -8.5666    3.2009   53.0580 H       1  ZINC000179743483    0.0800
     40 H40        -7.2026    2.8649   54.1508 H       1  ZINC000179743483    0.0700
     41 H41        -6.1387    3.3213   49.0163 H       1  ZINC000179743483    0.1800
     42 H42        -3.8674    2.4171   49.7631 H       1  ZINC000179743483    0.1800
     43 H43        -8.6475   -0.2228   51.5695 H       1  ZINC000179743483    0.0900
     44 H44        -9.3253    1.4192   51.4228 H       1  ZINC000179743483    0.0800
@<TRIPOS>BOND
     1     1     2    1
     2     1    26    1
     3     1    27    1
     4     1    28    1
     5     2     3    1
     6     2     4    1
     7     2    12    1
     8     4     5    1
     9     4    29    1
    10     4    30    1
    11     5    11   ar
    12     5     6   ar
    13     6     7   ar
    14     6    31    1
    15     7     8   ar
    16     7    32    1
    17     8     9    1
    18     8    10   ar
    19    10    11   ar
    20    10    33    1
    21    11    34    1
    22    12    13    2
    23    12    14   am
    24    14    25    1
    25    14    15    1
    26    15    16    1
    27    15    35    1
    28    15    36    1
    29    16    17    1
    30    16    37    1
    31    16    38    1
    32    17    18    1
    33    17    39    1
    34    17    40    1
    35    18    19    1
    36    18    20    1
    37    18    25    1
    38    20    24    1
    39    20    21    2
    40    21    22    1
    41    22    23    2
    42    22    41    1
    43    23    24    1
    44    23    42    1
    45    25    43    1
    46    25    44    1
@<TRIPOS>SUBSTRUCTURE
     1 ZINC000179743483        1 TEMP              0 ****  ****    0 ROOT


##########                                Name:    ZINC000328606936
##########                DOCK_Rotatable_Bonds:                   6
##########                         Heavy_Atoms:                  23
##########                    Molecular_Weight:             338.428
##########                DOCK_Rotatable_Bonds:                   6
##########                       Formal_Charge:           0.0100001
##########                     HBond_Acceptors:                   7
##########                        HBond_Donors:                   2
##########                         Heavy_Atoms:                  23
##########                          Grid_Score:          -29.253771
##########                     Grid_vdw_energy:          -23.825294
##########                      Grid_es_energy:           -5.428476
##########           Internal_energy_repulsive:            7.136513

@<TRIPOS>MOLECULE
ZINC000328606936
 45 47 1 0 0
SMALL
USER_CHARGES


@<TRIPOS>ATOM
      1 C1        -10.2114    1.2126   64.0247 C.3     1  <0>        -0.0500
      2 N2         -9.7279    0.0250   63.3079 N.4     1  <0>        -0.3500
      3 H3        -10.3567   -0.7467   63.4728 H       1  <0>         0.4200
      4 C4         -8.3855   -0.3255   63.7906 C.3     1  <0>        -0.0900
      5 C5         -8.4548   -0.6821   65.2532 C.2     1  <0>         0.4900
      6 O6         -8.2736    0.1769   66.0992 O.co2   1  <0>        -0.6700
      7 O7         -8.6922   -1.8294   65.5903 O.co2   1  <0>        -0.6400
      8 C8         -9.6713    0.3114   61.8681 C.3     1  <0>         0.0100
      9 H9         -8.8502    0.9945   61.6505 H       1  <0>         0.1600
     10 C10       -11.0102    0.9109   61.3871 C.3     1  <0>         0.1000
     11 N11       -11.2167    0.3312   60.0395 N.am    1  <0>        -0.6200
     12 C12       -11.7042    0.9430   58.9421 C.2     1  <0>         0.6200
     13 O13       -12.0346    2.1133   58.9940 O.2     1  <0>        -0.5100
     14 C14       -11.8367    0.1991   57.6861 C.2     1  <0>        -0.2800
     15 C15       -11.2814    0.5549   56.4953 C.2     1  <0>        -0.0300
     16 C16       -11.5578   -0.3189   55.4599 C.2     1  <0>        -0.1200
     17 C17       -12.3303   -1.3690   55.8198 C.2     1  <0>        -0.1900
     18 C18       -12.7749   -2.4683   54.8735 C.3     1  <0>        -0.0500
     19 C19       -12.5752   -1.9887   53.4335 C.3     1  <0>        -0.1200
     20 C20       -11.1527   -1.4415   53.2832 C.3     1  <0>        -0.1200
     21 C21       -11.0399   -0.1177   54.0415 C.3     1  <0>        -0.0600
     22 S22       -12.7308   -1.2979   57.4782 S.3     1  <0>         0.2000
     23 C23       -10.7657   -1.0738   60.1719 C.3     1  <0>         0.0600
     24 C24        -9.5072   -0.9969   61.0671 C.3     1  <0>         0.0800
     25 H25        -9.4696   -1.8520   61.7420 H       1  <0>         0.1000
     26 O26        -8.3273   -0.9479   60.2624 O.3     1  <0>        -0.5400
     27 H27        -9.5322    2.0462   63.8466 H       1  <0>         0.1100
     28 H28       -11.2075    1.4726   63.6665 H       1  <0>         0.1100
     29 H29       -10.2534    1.0000   65.0930 H       1  <0>         0.1600
     30 H30        -8.0075   -1.1780   63.2263 H       1  <0>         0.1200
     31 H31        -7.7171    0.5249   63.6553 H       1  <0>         0.1300
     32 H32       -11.8199    0.6175   62.0553 H       1  <0>         0.1000
     33 H33       -10.9406    1.9970   61.3270 H       1  <0>         0.1200
     34 H34       -10.6783    1.4421   56.3701 H       1  <0>         0.1500
     35 H35       -12.1777   -3.3635   55.0468 H       1  <0>         0.0900
     36 H36       -13.8286   -2.6911   55.0416 H       1  <0>         0.0800
     37 H37       -12.7192   -2.8235   52.7477 H       1  <0>         0.0700
     38 H38       -13.2945   -1.2014   53.2081 H       1  <0>         0.0700
     39 H39       -10.4415   -2.1585   53.6935 H       1  <0>         0.0700
     40 H40       -10.9360   -1.2759   52.2279 H       1  <0>         0.0700
     41 H41       -11.6364    0.6435   53.5385 H       1  <0>         0.0800
     42 H42        -9.9967    0.1962   54.0754 H       1  <0>         0.0800
     43 H43       -11.5372   -1.6771   60.6503 H       1  <0>         0.1000
     44 H44       -10.5116   -1.4850   59.1950 H       1  <0>         0.1000
     45 H45        -7.5139   -0.8048   60.7654 H       1  <0>         0.4000
@<TRIPOS>BOND
     1     1     2    1
     2     1    27    1
     3     1    28    1
     4     1    29    1
     5     2     3    1
     6     2     4    1
     7     2     8    1
     8     4     5    1
     9     4    30    1
    10     4    31    1
    11     5     6   ar
    12     5     7   ar
    13     8     9    1
    14     8    24    1
    15     8    10    1
    16    10    11    1
    17    10    32    1
    18    10    33    1
    19    11    12   am
    20    11    23    1
    21    12    13    2
    22    12    14    1
    23    14    22    1
    24    14    15    2
    25    15    16    1
    26    15    34    1
    27    16    21    1
    28    16    17    2
    29    17    18    1
    30    17    22    1
    31    18    19    1
    32    18    35    1
    33    18    36    1
    34    19    20    1
    35    19    37    1
    36    19    38    1
    37    20    21    1
    38    20    39    1
    39    20    40    1
    40    21    41    1
    41    21    42    1
    42    23    24    1
    43    23    43    1
    44    23    44    1
    45    24    25    1
    46    24    26    1
    47    26    45    1
@<TRIPOS>SUBSTRUCTURE
     1 <0>         1 TEMP              0 ****  ****    0 ROOT


##########                                Name:    ZINC000847397179
##########                DOCK_Rotatable_Bonds:                   9
##########                         Heavy_Atoms:                  25
##########                    Molecular_Weight:             350.461
##########                DOCK_Rotatable_Bonds:                   9
##########                       Formal_Charge:          0.00999979
##########                     HBond_Acceptors:                   7
##########                        HBond_Donors:                   2
##########                         Heavy_Atoms:                  25
##########                          Grid_Score:          -29.250864
##########                     Grid_vdw_energy:          -29.827097
##########                      Grid_es_energy:            0.576233
##########           Internal_energy_repulsive:           85.469421

@<TRIPOS>MOLECULE
ZINC000847397179
 55 56 1 0 0
SMALL
USER_CHARGES


@<TRIPOS>ATOM
      1 C1        -12.2302    2.1532   52.5379 C.3     1  ZINC000847397179   -0.1500
      2 C2        -11.6421    0.7549   52.7371 C.3     1  ZINC000847397179   -0.1000
      3 H3        -12.1062    0.0622   52.0350 H       1  ZINC000847397179    0.0900
      4 C4        -11.9120    0.2873   54.1686 C.3     1  ZINC000847397179   -0.0200
      5 C5        -11.6880   -1.2000   54.2619 C.2     1  ZINC000847397179    0.0100
      6 C6        -11.3344   -1.8790   55.3698 C.2     1  ZINC000847397179   -0.0500
      7 N7        -11.2404   -3.1973   55.0132 N.pl3   1  ZINC000847397179   -0.5700
      8 C8        -11.5401   -3.2779   53.6990 C.2     1  ZINC000847397179    0.1800
      9 N9        -11.8116   -2.0802   53.2575 N.2     1  ZINC000847397179   -0.4900
     10 C10       -10.1554    0.7960   52.4939 C.2     1  ZINC000847397179    0.5200
     11 O11        -9.5794   -0.1921   52.0907 O.2     1  ZINC000847397179   -0.5300
     12 N12        -9.4660    1.9309   52.7245 N.am    1  ZINC000847397179   -0.7400
     13 C13        -8.0205    1.9703   52.4899 C.3     1  ZINC000847397179    0.1200
     14 C14        -7.3807    3.0027   53.4203 C.3     1  ZINC000847397179    0.1500
     15 H15        -7.7363    3.9995   53.1598 H       1  ZINC000847397179    0.0800
     16 C16        -7.7547    2.6871   54.8720 C.3     1  ZINC000847397179   -0.1300
     17 C17        -7.0015    3.6364   55.8067 C.3     1  ZINC000847397179   -0.1200
     18 C18        -5.4943    3.4295   55.6402 C.3     1  ZINC000847397179   -0.1400
     19 C19        -5.0946    3.7536   54.1973 C.3     1  ZINC000847397179    0.1100
     20 N20        -5.9187    2.9500   53.2835 N.am    1  ZINC000847397179   -0.5900
     21 C21        -5.3442    2.1759   52.3417 C.2     1  ZINC000847397179    0.6500
     22 O22        -6.0366    1.5162   51.5922 O.2     1  ZINC000847397179   -0.5500
     23 O23        -4.0031    2.1336   52.2313 O.3     1  ZINC000847397179   -0.3600
     24 C24        -3.4063    2.8955   51.1488 C.3     1  ZINC000847397179    0.1400
     25 C25        -4.0262    4.2937   51.1070 C.3     1  ZINC000847397179   -0.1800
     26 C26        -1.8983    3.0129   51.3786 C.3     1  ZINC000847397179   -0.1400
     27 C27        -3.6658    2.1827   49.8200 C.3     1  ZINC000847397179   -0.1800
     28 H28       -11.7663    2.8460   53.2400 H       1  ZINC000847397179    0.0500
     29 H29       -12.0380    2.4864   51.5180 H       1  ZINC000847397179    0.0500
     30 H30       -13.3056    2.1235   52.7138 H       1  ZINC000847397179    0.1000
     31 H31       -11.2354    0.8003   54.8522 H       1  ZINC000847397179    0.0800
     32 H32       -12.9431    0.5171   54.4376 H       1  ZINC000847397179    0.0800
     33 H33       -11.1583   -1.4634   56.3510 H       1  ZINC000847397179    0.1800
     34 H34       -11.0028   -3.9356   55.5958 H       1  ZINC000847397179    0.4200
     35 H35       -11.5564   -4.1840   53.1115 H       1  ZINC000847397179    0.2100
     36 H36        -9.9269    2.7215   53.0459 H       1  ZINC000847397179    0.3900
     37 H37        -7.5931    0.9876   52.6889 H       1  ZINC000847397179    0.0800
     38 H38        -7.8281    2.2470   51.4532 H       1  ZINC000847397179    0.1000
     39 H39        -8.8282    2.8185   55.0079 H       1  ZINC000847397179    0.0800
     40 H40        -7.4817    1.6573   55.1024 H       1  ZINC000847397179    0.0700
     41 H41        -7.2560    4.6671   55.5594 H       1  ZINC000847397179    0.0700
     42 H42        -7.2846    3.4302   56.8388 H       1  ZINC000847397179    0.0700
     43 H43        -4.9589    4.0893   56.3230 H       1  ZINC000847397179    0.0800
     44 H44        -5.2426    2.3927   55.8634 H       1  ZINC000847397179    0.0700
     45 H45        -5.2617    4.8126   54.0009 H       1  ZINC000847397179    0.0700
     46 H46        -4.0421    3.5134   54.0470 H       1  ZINC000847397179    0.0900
     47 H47        -3.8414    4.8015   52.0536 H       1  ZINC000847397179    0.0600
     48 H48        -3.5783    4.8656   50.2944 H       1  ZINC000847397179    0.0700
     49 H49        -5.1006    4.2100   50.9433 H       1  ZINC000847397179    0.0900
     50 H50        -1.4566    2.0168   51.4083 H       1  ZINC000847397179    0.0700
     51 H51        -1.4504    3.5848   50.5660 H       1  ZINC000847397179    0.0800
     52 H52        -1.7134    3.5207   52.3252 H       1  ZINC000847397179    0.0700
     53 H53        -4.7402    2.0991   49.6563 H       1  ZINC000847397179    0.0900
     54 H54        -3.2179    2.7546   49.0074 H       1  ZINC000847397179    0.0700
     55 H55        -3.2242    1.1866   49.8498 H       1  ZINC000847397179    0.0600
@<TRIPOS>BOND
     1     1     2    1
     2     1    28    1
     3     1    29    1
     4     1    30    1
     5     2     3    1
     6     2     4    1
     7     2    10    1
     8     4     5    1
     9     4    31    1
    10     4    32    1
    11     5     9    1
    12     5     6    2
    13     6     7    1
    14     6    33    1
    15     7     8    1
    16     7    34    1
    17     8     9    2
    18     8    35    1
    19    10    11    2
    20    10    12   am
    21    12    13    1
    22    12    36    1
    23    13    14    1
    24    13    37    1
    25    13    38    1
    26    14    15    1
    27    14    20    1
    28    14    16    1
    29    16    17    1
    30    16    39    1
    31    16    40    1
    32    17    18    1
    33    17    41    1
    34    17    42    1
    35    18    19    1
    36    18    43    1
    37    18    44    1
    38    19    20    1
    39    19    45    1
    40    19    46    1
    41    20    21   am
    42    21    22    2
    43    21    23    1
    44    23    24    1
    45    24    25    1
    46    24    26    1
    47    24    27    1
    48    25    47    1
    49    25    48    1
    50    25    49    1
    51    26    50    1
    52    26    51    1
    53    26    52    1
    54    27    53    1
    55    27    54    1
    56    27    55    1
@<TRIPOS>SUBSTRUCTURE
     1 ZINC000847397179        1 TEMP              0 ****  ****    0 ROOT


##########                                Name:    ZINC000052999724
##########                DOCK_Rotatable_Bonds:                   6
##########                         Heavy_Atoms:                  25
##########                    Molecular_Weight:             398.571
##########                DOCK_Rotatable_Bonds:                   6
##########                       Formal_Charge:           0.0399994
##########                     HBond_Acceptors:                   8
##########                        HBond_Donors:                   1
##########                         Heavy_Atoms:                  25
##########                          Grid_Score:          -29.245199
##########                     Grid_vdw_energy:          -28.721657
##########                      Grid_es_energy:           -0.523542
##########           Internal_energy_repulsive:           19.096159

@<TRIPOS>MOLECULE
ZINC000052999724
 47 49 1 0 0
SMALL
USER_CHARGES


@<TRIPOS>ATOM
      1 C1        -15.7119   -3.3752   59.9454 C.3     1  ZINC000052999724   -0.1400
      2 C2        -14.9716   -2.5828   58.8661 C.3     1  ZINC000052999724   -0.0400
      3 C3        -15.6287   -1.2112   58.6995 C.3     1  ZINC000052999724   -0.1400
      4 C4        -13.5317   -2.4040   59.2729 C.2     1  ZINC000052999724   -0.0400
      5 C5        -12.4774   -2.7138   58.4606 C.2     1  ZINC000052999724   -0.2600
      6 C6        -12.5809   -3.2540   57.1019 C.2     1  ZINC000052999724    0.6000
      7 O7        -12.6451   -4.4570   56.9286 O.2     1  ZINC000052999724   -0.5200
      8 N8        -12.6050   -2.4186   56.0445 N.am    1  ZINC000052999724   -0.6000
      9 C9        -12.5222   -0.9644   56.2374 C.3     1  ZINC000052999724    0.1100
     10 C10       -11.3771   -0.4176   55.3793 C.3     1  ZINC000052999724   -0.1400
     11 C11       -11.5841   -0.8480   53.9253 C.3     1  ZINC000052999724    0.1500
     12 N12       -10.5084   -0.2990   53.0961 N.am    1  ZINC000052999724   -1.1100
     13 S13       -10.2448    1.3354   53.0573 S.o2    1  ZINC000052999724    2.7200
     14 O14       -11.3860    1.9113   52.4367 O.2     1  ZINC000052999724   -0.9500
     15 O15        -9.7989    1.7009   54.3562 O.2     1  ZINC000052999724   -0.9400
     16 C16        -8.8895    1.6195   51.9677 C.2     1  ZINC000052999724   -0.8000
     17 C17        -8.6769    2.7435   51.2817 C.2     1  ZINC000052999724    0.0100
     18 C18        -7.5431    2.7366   50.4877 C.2     1  ZINC000052999724   -0.1600
     19 C19        -6.8350    1.6069   50.5288 C.2     1  ZINC000052999724   -0.1700
     20 S20        -7.6059    0.4671   51.6243 S.3     1  ZINC000052999724    0.2100
     21 C21       -11.5673   -2.3757   53.8364 C.3     1  ZINC000052999724   -0.1500
     22 C22       -12.7085   -2.9450   54.6768 C.3     1  ZINC000052999724    0.1100
     23 S23       -10.9768   -2.3601   59.3061 S.3     1  ZINC000052999724    0.2100
     24 C24       -11.8259   -1.8228   60.6850 C.2     1  ZINC000052999724   -0.2400
     25 C25       -13.1479   -1.9074   60.4960 C.2     1  ZINC000052999724   -0.1300
     26 H26       -15.2439   -4.3524   60.0640 H       1  ZINC000052999724    0.0600
     27 H27       -15.6659   -2.8332   60.8899 H       1  ZINC000052999724    0.0600
     28 H28       -16.7534   -3.5046   59.6510 H       1  ZINC000052999724    0.0600
     29 H29       -15.0177   -3.1248   57.9215 H       1  ZINC000052999724    0.0800
     30 H30       -15.5826   -0.6691   59.6440 H       1  ZINC000052999724    0.0600
     31 H31       -15.1013   -0.6466   57.9305 H       1  ZINC000052999724    0.0600
     32 H32       -16.6702   -1.3405   58.4052 H       1  ZINC000052999724    0.0600
     33 H33       -13.4607   -0.5014   55.9325 H       1  ZINC000052999724    0.0800
     34 H34       -12.3286   -0.7455   57.2876 H       1  ZINC000052999724    0.0900
     35 H35       -11.3657    0.6707   55.4384 H       1  ZINC000052999724    0.0900
     36 H36       -10.4288   -0.8121   55.7440 H       1  ZINC000052999724    0.0800
     37 H37       -12.5440   -0.4743   53.5691 H       1  ZINC000052999724    0.0900
     38 H38        -9.9505   -0.8928   52.5697 H       1  ZINC000052999724    0.4200
     39 H39        -9.3393    3.5944   51.3412 H       1  ZINC000052999724    0.1600
     40 H40        -7.2540    3.5817   49.8805 H       1  ZINC000052999724    0.1500
     41 H41        -5.9253    1.4219   49.9767 H       1  ZINC000052999724    0.1800
     42 H42       -11.6914   -2.6811   52.7975 H       1  ZINC000052999724    0.1000
     43 H43       -10.6171   -2.7518   54.2157 H       1  ZINC000052999724    0.0800
     44 H44       -12.6404   -4.0328   54.6963 H       1  ZINC000052999724    0.1000
     45 H45       -13.6639   -2.6443   54.2470 H       1  ZINC000052999724    0.0800
     46 H46       -11.3587   -1.4592   61.5883 H       1  ZINC000052999724    0.1700
     47 H47       -13.8613   -1.6147   61.2523 H       1  ZINC000052999724    0.1400
@<TRIPOS>BOND
     1     1     2    1
     2     1    26    1
     3     1    27    1
     4     1    28    1
     5     2     3    1
     6     2     4    1
     7     2    29    1
     8     3    30    1
     9     3    31    1
    10     3    32    1
    11     4    25    1
    12     4     5    2
    13     5     6    1
    14     5    23    1
    15     6     7    2
    16     6     8   am
    17     8    22    1
    18     8     9    1
    19     9    10    1
    20     9    33    1
    21     9    34    1
    22    10    11    1
    23    10    35    1
    24    10    36    1
    25    11    12    1
    26    11    21    1
    27    11    37    1
    28    12    13   am
    29    12    38    1
    30    13    14    2
    31    13    15    2
    32    13    16    1
    33    16    20    1
    34    16    17    2
    35    17    18    1
    36    17    39    1
    37    18    19    2
    38    18    40    1
    39    19    20    1
    40    19    41    1
    41    21    22    1
    42    21    42    1
    43    21    43    1
    44    22    44    1
    45    22    45    1
    46    23    24    1
    47    24    25    2
    48    24    46    1
    49    25    47    1
@<TRIPOS>SUBSTRUCTURE
     1 ZINC000052999724        1 TEMP              0 ****  ****    0 ROOT


##########                                Name:    ZINC000274267583
##########                DOCK_Rotatable_Bonds:                   5
##########                         Heavy_Atoms:                  24
##########                    Molecular_Weight:             349.407
##########                DOCK_Rotatable_Bonds:                   5
##########                       Formal_Charge:           0.0300001
##########                     HBond_Acceptors:                   7
##########                        HBond_Donors:                   1
##########                         Heavy_Atoms:                  24
##########                          Grid_Score:          -29.202133
##########                     Grid_vdw_energy:          -29.876671
##########                      Grid_es_energy:            0.674538
##########           Internal_energy_repulsive:           10.906694

@<TRIPOS>MOLECULE
ZINC000274267583
 43 45 1 0 0
SMALL
USER_CHARGES


@<TRIPOS>ATOM
      1 C1         -8.5969   -0.0490   66.5719 C.3     1  ZINC000274267583    0.0200
      2 O2         -9.4661    0.8016   65.8216 O.3     1  ZINC000274267583   -0.3100
      3 C3         -9.4850    0.6296   64.4736 C.ar    1  ZINC000274267583    0.1900
      4 C4        -10.3025    1.4243   63.6831 C.ar    1  ZINC000274267583   -0.2300
      5 C5        -10.3194    1.2478   62.3130 C.ar    1  ZINC000274267583    0.0300
      6 C6         -9.5229    0.2799   61.7296 C.ar    1  ZINC000274267583   -0.7200
      7 S7         -9.5473    0.0569   59.9820 S.o2    1  ZINC000274267583    2.7000
      8 O8         -9.1339    1.2921   59.4140 O.2     1  ZINC000274267583   -0.9500
      9 O9         -8.8884   -1.1756   59.7255 O.2     1  ZINC000274267583   -0.9500
     10 N10       -11.1281   -0.1565   59.5370 N.am    1  ZINC000274267583   -1.1100
     11 C11       -11.8980   -1.2770   60.0830 C.3     1  ZINC000274267583    0.2100
     12 H12       -11.2661   -1.8578   60.7549 H       1  ZINC000274267583    0.1000
     13 C13       -13.1034   -0.7375   60.8567 C.3     1  ZINC000274267583   -0.1800
     14 C14       -14.0440   -1.9101   61.1625 C.3     1  ZINC000274267583    0.0600
     15 O15       -14.5467   -2.4184   59.9260 O.3     1  ZINC000274267583   -0.3100
     16 C16       -13.6521   -2.6816   58.9369 C.ar    1  ZINC000274267583    0.1100
     17 C17       -14.0492   -3.5008   57.8854 C.ar    1  ZINC000274267583   -0.1100
     18 C18       -13.1735   -3.7891   56.8587 C.ar    1  ZINC000274267583   -0.1600
     19 C19       -11.8918   -3.2600   56.8743 C.ar    1  ZINC000274267583    0.0900
     20 O20       -11.0269   -3.5396   55.8629 O.3     1  ZINC000274267583   -0.3200
     21 C21       -11.3374   -3.0010   54.5762 C.3     1  ZINC000274267583    0.0300
     22 C22       -11.4941   -2.4455   57.9224 C.ar    1  ZINC000274267583   -0.1000
     23 C23       -12.3721   -2.1570   58.9543 C.ar    1  ZINC000274267583   -0.1400
     24 C24        -8.7070   -0.5131   62.5152 C.ar    1  ZINC000274267583    0.0200
     25 C25        -8.6825   -0.3371   63.8852 C.ar    1  ZINC000274267583   -0.1700
     26 H26        -8.8807   -1.0894   66.4133 H       1  ZINC000274267583    0.0600
     27 H27        -7.5686    0.1013   66.2431 H       1  ZINC000274267583    0.0600
     28 H28        -8.6784    0.1923   67.6318 H       1  ZINC000274267583    0.1100
     29 H29       -10.9253    2.1800   64.1384 H       1  ZINC000274267583    0.1400
     30 H30       -10.9556    1.8663   61.6973 H       1  ZINC000274267583    0.1400
     31 H31       -11.5444    0.4604   58.9147 H       1  ZINC000274267583    0.4200
     32 H32       -12.7682   -0.2828   61.7889 H       1  ZINC000274267583    0.1000
     33 H33       -13.6256    0.0044   60.2526 H       1  ZINC000274267583    0.0900
     34 H34       -13.4959   -2.6936   61.6857 H       1  ZINC000274267583    0.0700
     35 H35       -14.8722   -1.5648   61.7813 H       1  ZINC000274267583    0.1200
     36 H36       -15.0473   -3.9132   57.8727 H       1  ZINC000274267583    0.1400
     37 H37       -13.4858   -4.4262   56.0445 H       1  ZINC000274267583    0.1400
     38 H38       -12.3050   -3.3801   54.2474 H       1  ZINC000274267583    0.0600
     39 H39       -11.3751   -1.9133   54.6371 H       1  ZINC000274267583    0.0600
     40 H40       -10.5690   -3.2986   53.8627 H       1  ZINC000274267583    0.1000
     41 H41       -10.4958   -2.0337   57.9347 H       1  ZINC000274267583    0.1300
     42 H42        -8.0855   -1.2683   62.0571 H       1  ZINC000274267583    0.1500
     43 H43        -8.0450   -0.9567   64.4984 H       1  ZINC000274267583    0.1400
@<TRIPOS>BOND
     1     1     2    1
     2     1    26    1
     3     1    27    1
     4     1    28    1
     5     2     3    1
     6     3    25   ar
     7     3     4   ar
     8     4     5   ar
     9     4    29    1
    10     5     6   ar
    11     5    30    1
    12     6     7    1
    13     6    24   ar
    14     7     8    2
    15     7     9    2
    16     7    10   am
    17    10    11    1
    18    10    31    1
    19    11    12    1
    20    11    23    1
    21    11    13    1
    22    13    14    1
    23    13    32    1
    24    13    33    1
    25    14    15    1
    26    14    34    1
    27    14    35    1
    28    15    16    1
    29    16    23   ar
    30    16    17   ar
    31    17    18   ar
    32    17    36    1
    33    18    19   ar
    34    18    37    1
    35    19    20    1
    36    19    22   ar
    37    20    21    1
    38    21    38    1
    39    21    39    1
    40    21    40    1
    41    22    23   ar
    42    22    41    1
    43    24    25   ar
    44    24    42    1
    45    25    43    1
@<TRIPOS>SUBSTRUCTURE
     1 ZINC000274267583        1 TEMP              0 ****  ****    0 ROOT


##########                                Name:    ZINC000464867530
##########                DOCK_Rotatable_Bonds:                   8
##########                         Heavy_Atoms:                  30
##########                    Molecular_Weight:              422.49
##########                DOCK_Rotatable_Bonds:                   8
##########                       Formal_Charge:         -0.00999994
##########                     HBond_Acceptors:                   7
##########                        HBond_Donors:                   0
##########                         Heavy_Atoms:                  30
##########                          Grid_Score:          -29.198427
##########                     Grid_vdw_energy:          -28.768068
##########                      Grid_es_energy:           -0.430359
##########           Internal_energy_repulsive:           34.442966

@<TRIPOS>MOLECULE
ZINC000464867530
 59 62 1 0 0
SMALL
USER_CHARGES


@<TRIPOS>ATOM
      1 C1         -6.4401    3.7475   56.1900 C.3     1  ZINC000464867530   -0.1500
      2 C2         -7.4255    2.6274   55.8501 C.3     1  ZINC000464867530   -0.1400
      3 C3         -7.9375    2.8152   54.4205 C.3     1  ZINC000464867530    0.0900
      4 N4         -8.6282    1.5986   53.9856 N.am    1  ZINC000464867530   -0.6100
      5 C5         -8.0242    0.7387   52.9647 C.3     1  ZINC000464867530    0.0700
      6 C6         -7.4776    1.6039   51.8274 C.3     1  ZINC000464867530    0.4300
      7 F7         -8.2568    2.7593   51.7045 F       1  ZINC000464867530   -0.1700
      8 F8         -6.1545    1.9615   52.1080 F       1  ZINC000464867530   -0.1800
      9 F9         -7.5217    0.8820   50.6298 F       1  ZINC000464867530   -0.1800
     10 C10        -9.8190    1.2704   54.5247 C.2     1  ZINC000464867530    0.5300
     11 O11       -10.3188    1.9824   55.3698 O.2     1  ZINC000464867530   -0.5100
     12 C12       -10.5295    0.0190   54.0774 C.3     1  ZINC000464867530   -0.1200
     13 H13        -9.7961   -0.7574   53.8591 H       1  ZINC000464867530    0.1000
     14 C14       -11.3470    0.3178   52.8187 C.3     1  ZINC000464867530   -0.1200
     15 C15       -12.0427   -0.9602   52.3448 C.3     1  ZINC000464867530   -0.1300
     16 C16       -12.9984   -1.4515   53.4366 C.3     1  ZINC000464867530    0.1000
     17 N17       -12.2467   -1.6028   54.6900 N.am    1  ZINC000464867530   -0.6100
     18 C18       -12.2710   -2.7668   55.3690 C.2     1  ZINC000464867530    0.5500
     19 O19       -12.9164   -3.7023   54.9458 O.2     1  ZINC000464867530   -0.5300
     20 C20       -11.4961   -2.9059   56.6540 C.3     1  ZINC000464867530   -0.1700
     21 H21       -10.4667   -2.5486   56.6235 H       1  ZINC000464867530    0.1300
     22 C22       -11.7967   -4.1230   57.5331 C.3     1  ZINC000464867530   -0.1300
     23 C23       -12.2624   -2.7349   57.9603 C.3     1  ZINC000464867530   -0.0600
     24 C24       -13.7540   -2.3612   57.9642 C.3     1  ZINC000464867530   -0.0900
     25 C25       -13.7485   -1.0016   58.6975 C.3     1  ZINC000464867530   -0.0800
     26 C26       -12.5135   -1.0270   59.5733 C.ar    1  ZINC000464867530   -0.0900
     27 C27       -12.1666   -0.2392   60.6573 C.ar    1  ZINC000464867530   -0.1100
     28 C28       -10.9684   -0.4457   61.3130 C.ar    1  ZINC000464867530   -0.1100
     29 C29       -10.1118   -1.4426   60.8858 C.ar    1  ZINC000464867530   -0.1200
     30 C30       -10.4556   -2.2304   59.8045 C.ar    1  ZINC000464867530   -0.1000
     31 C31       -11.6560   -2.0260   59.1455 C.ar    1  ZINC000464867530   -0.0700
     32 C32       -11.4674   -0.4617   55.1892 C.3     1  ZINC000464867530    0.1300
     33 H33        -5.6002    3.7156   55.4960 H       1  ZINC000464867530    0.0600
     34 H34        -6.9429    4.7111   56.1078 H       1  ZINC000464867530    0.0600
     35 H35        -6.0753    3.6137   57.2084 H       1  ZINC000464867530    0.0600
     36 H36        -6.9226    1.6639   55.9322 H       1  ZINC000464867530    0.0700
     37 H37        -8.2653    2.6593   56.5441 H       1  ZINC000464867530    0.0700
     38 H38        -8.6298    3.6566   54.3902 H       1  ZINC000464867530    0.0900
     39 H39        -7.0963    3.0127   53.7562 H       1  ZINC000464867530    0.0900
     40 H40        -7.2104    0.1649   53.4082 H       1  ZINC000464867530    0.1300
     41 H41        -8.7780    0.0563   52.5721 H       1  ZINC000464867530    0.1200
     42 H42       -12.0961    1.0770   53.0439 H       1  ZINC000464867530    0.0800
     43 H43       -10.6847    0.6832   52.0338 H       1  ZINC000464867530    0.0800
     44 H44       -12.6060   -0.7519   51.4351 H       1  ZINC000464867530    0.0900
     45 H45       -11.2956   -1.7278   52.1430 H       1  ZINC000464867530    0.0700
     46 H46       -13.7986   -0.7246   53.5760 H       1  ZINC000464867530    0.0700
     47 H47       -13.4218   -2.4129   53.1462 H       1  ZINC000464867530    0.0900
     48 H48       -12.5548   -4.8230   57.1819 H       1  ZINC000464867530    0.1100
     49 H49       -10.9652   -4.5658   58.0814 H       1  ZINC000464867530    0.1100
     50 H50       -14.1294   -2.2518   56.9467 H       1  ZINC000464867530    0.0700
     51 H51       -14.3372   -3.0978   58.5170 H       1  ZINC000464867530    0.0800
     52 H52       -13.6853   -0.1847   57.9787 H       1  ZINC000464867530    0.0800
     53 H53       -14.6442   -0.8988   59.3101 H       1  ZINC000464867530    0.0800
     54 H54       -12.8353    0.5403   60.9915 H       1  ZINC000464867530    0.1200
     55 H55       -10.7013    0.1713   62.1583 H       1  ZINC000464867530    0.1300
     56 H56        -9.1743   -1.6054   61.3967 H       1  ZINC000464867530    0.1300
     57 H57        -9.7850   -3.0088   59.4715 H       1  ZINC000464867530    0.1200
     58 H58       -10.8812   -0.7702   56.0549 H       1  ZINC000464867530    0.1000
     59 H59       -12.1424    0.3463   55.4716 H       1  ZINC000464867530    0.0800
@<TRIPOS>BOND
     1     1     2    1
     2     1    33    1
     3     1    34    1
     4     1    35    1
     5     2     3    1
     6     2    36    1
     7     2    37    1
     8     3     4    1
     9     3    38    1
    10     3    39    1
    11     4     5    1
    12     4    10   am
    13     5     6    1
    14     5    40    1
    15     5    41    1
    16     6     7    1
    17     6     8    1
    18     6     9    1
    19    10    11    2
    20    10    12    1
    21    12    13    1
    22    12    32    1
    23    12    14    1
    24    14    15    1
    25    14    42    1
    26    14    43    1
    27    15    16    1
    28    15    44    1
    29    15    45    1
    30    16    17    1
    31    16    46    1
    32    16    47    1
    33    17    18   am
    34    17    32    1
    35    18    19    2
    36    18    20    1
    37    20    21    1
    38    20    23    1
    39    20    22    1
    40    22    23    1
    41    22    48    1
    42    22    49    1
    43    23    31    1
    44    23    24    1
    45    24    25    1
    46    24    50    1
    47    24    51    1
    48    25    26    1
    49    25    52    1
    50    25    53    1
    51    26    31   ar
    52    26    27   ar
    53    27    28   ar
    54    27    54    1
    55    28    29   ar
    56    28    55    1
    57    29    30   ar
    58    29    56    1
    59    30    31   ar
    60    30    57    1
    61    32    58    1
    62    32    59    1
@<TRIPOS>SUBSTRUCTURE
     1 ZINC000464867530        1 TEMP              0 ****  ****    0 ROOT


##########                                Name:    ZINC000460163972
##########                DOCK_Rotatable_Bonds:                   7
##########                         Heavy_Atoms:                  28
##########                    Molecular_Weight:             408.469
##########                DOCK_Rotatable_Bonds:                   7
##########                       Formal_Charge:          -0.0100001
##########                     HBond_Acceptors:                   8
##########                        HBond_Donors:                   2
##########                         Heavy_Atoms:                  28
##########                          Grid_Score:          -29.177149
##########                     Grid_vdw_energy:          -29.498810
##########                      Grid_es_energy:            0.321661
##########           Internal_energy_repulsive:           49.726254

@<TRIPOS>MOLECULE
ZINC000460163972
 50 52 1 0 0
SMALL
USER_CHARGES


@<TRIPOS>ATOM
      1 C1         -9.7710    0.6989   58.1012 C.3     1  ZINC000460163972   -0.1400
      2 C2         -9.2327    1.1637   56.7726 C.ar    1  ZINC000460163972    0.0100
      3 C3         -7.9326    1.6248   56.6783 C.ar    1  ZINC000460163972   -0.1300
      4 C4         -7.4361    2.0515   55.4619 C.ar    1  ZINC000460163972   -0.0600
      5 C5         -8.2440    2.0166   54.3333 C.ar    1  ZINC000460163972    0.1100
      6 N6         -7.7441    2.4477   53.0995 N.am    1  ZINC000460163972   -0.6700
      7 C7         -7.1646    1.5653   52.2616 C.2     1  ZINC000460163972    0.5200
      8 O8         -7.0765    0.3974   52.5771 O.2     1  ZINC000460163972   -0.5100
      9 C9         -6.6261    2.0295   50.9329 C.3     1  ZINC000460163972   -0.0700
     10 H10        -6.6329    1.1985   50.2277 H       1  ZINC000460163972    0.1200
     11 C11        -7.5029    3.1621   50.3950 C.3     1  ZINC000460163972   -0.1500
     12 C12        -5.2146    2.5272   51.1092 C.ar    1  ZINC000460163972   -0.0600
     13 C13        -4.3045    2.4020   50.0765 C.ar    1  ZINC000460163972   -0.0700
     14 C14        -3.0090    2.8577   50.2358 C.ar    1  ZINC000460163972   -0.1200
     15 C15        -2.6224    3.4403   51.4299 C.ar    1  ZINC000460163972    0.0700
     16 F16        -1.3568    3.8863   51.5862 F       1  ZINC000460163972   -0.1300
     17 C17        -3.5358    3.5663   52.4659 C.ar    1  ZINC000460163972    0.0700
     18 F18        -3.1608    4.1348   53.6327 F       1  ZINC000460163972   -0.1300
     19 C19        -4.8330    3.1136   52.3016 C.ar    1  ZINC000460163972   -0.1200
     20 C20        -9.5495    1.5524   54.4313 C.ar    1  ZINC000460163972    0.0000
     21 C21       -10.4296    1.5124   53.2086 C.3     1  ZINC000460163972   -0.1500
     22 C22       -10.0383    1.1228   55.6492 C.ar    1  ZINC000460163972   -0.6700
     23 S23       -11.6939    0.5332   55.7745 S.o2    1  ZINC000460163972    2.7000
     24 O24       -11.7097   -0.3928   56.8523 O.2     1  ZINC000460163972   -0.9500
     25 O25       -12.5330    1.6788   55.7218 O.2     1  ZINC000460163972   -0.9500
     26 N26       -12.0083   -0.3402   54.4031 N.am    1  ZINC000460163972   -1.0900
     27 C27       -11.1987   -1.5185   54.0835 C.3     1  ZINC000460163972    0.0800
     28 C28       -11.5580   -2.8326   54.7800 C.3     1  ZINC000460163972   -0.1800
     29 C29       -11.8702   -2.6441   53.2941 C.3     1  ZINC000460163972   -0.1900
     30 H30        -9.6647   -0.3832   58.1778 H       1  ZINC000460163972    0.1000
     31 H31        -9.2131    1.1767   58.9066 H       1  ZINC000460163972    0.0800
     32 H32       -10.8245    0.9670   58.1802 H       1  ZINC000460163972    0.0700
     33 H33        -7.3047    1.6517   57.5565 H       1  ZINC000460163972    0.1400
     34 H34        -6.4207    2.4122   55.3890 H       1  ZINC000460163972    0.1600
     35 H35        -7.8144    3.3817   52.8472 H       1  ZINC000460163972    0.4100
     36 H36        -7.1134    3.4979   49.4339 H       1  ZINC000460163972    0.0800
     37 H37        -8.5238    2.8021   50.2675 H       1  ZINC000460163972    0.0700
     38 H38        -7.4961    3.9932   51.1001 H       1  ZINC000460163972    0.0700
     39 H39        -4.6056    1.9474   49.1443 H       1  ZINC000460163972    0.1400
     40 H40        -2.2986    2.7587   49.4284 H       1  ZINC000460163972    0.1500
     41 H41        -5.5453    3.2114   53.1076 H       1  ZINC000460163972    0.1500
     42 H42       -10.4106    0.5105   52.7799 H       1  ZINC000460163972    0.1000
     43 H43       -11.4516    1.7687   53.4881 H       1  ZINC000460163972    0.1000
     44 H44       -10.0634    2.2292   52.4736 H       1  ZINC000460163972    0.0700
     45 H45       -12.7285   -0.0715   53.8114 H       1  ZINC000460163972    0.4200
     46 H46       -10.1443   -1.3252   53.8862 H       1  ZINC000460163972    0.1300
     47 H47       -10.7400   -3.5039   55.0411 H       1  ZINC000460163972    0.1100
     48 H48       -12.3968   -2.8204   55.4759 H       1  ZINC000460163972    0.1000
     49 H49       -12.9144   -2.5077   53.0125 H       1  ZINC000460163972    0.1000
     50 H50       -11.2575   -3.1913   52.5776 H       1  ZINC000460163972    0.1000
@<TRIPOS>BOND
     1     1     2    1
     2     1    30    1
     3     1    31    1
     4     1    32    1
     5     2    22   ar
     6     2     3   ar
     7     3     4   ar
     8     3    33    1
     9     4     5   ar
    10     4    34    1
    11     5     6    1
    12     5    20   ar
    13     6     7   am
    14     6    35    1
    15     7     8    2
    16     7     9    1
    17     9    10    1
    18     9    11    1
    19     9    12    1
    20    11    36    1
    21    11    37    1
    22    11    38    1
    23    12    19   ar
    24    12    13   ar
    25    13    14   ar
    26    13    39    1
    27    14    15   ar
    28    14    40    1
    29    15    16    1
    30    15    17   ar
    31    17    18    1
    32    17    19   ar
    33    19    41    1
    34    20    21    1
    35    20    22   ar
    36    21    42    1
    37    21    43    1
    38    21    44    1
    39    22    23    1
    40    23    24    2
    41    23    25    2
    42    23    26   am
    43    26    27    1
    44    26    45    1
    45    27    29    1
    46    27    28    1
    47    27    46    1
    48    28    29    1
    49    28    47    1
    50    28    48    1
    51    29    49    1
    52    29    50    1
@<TRIPOS>SUBSTRUCTURE
     1 ZINC000460163972        1 TEMP              0 ****  ****    0 ROOT


##########                                Name:    ZINC000057429281
##########                DOCK_Rotatable_Bonds:                  10
##########                         Heavy_Atoms:                  23
##########                    Molecular_Weight:             331.295
##########                DOCK_Rotatable_Bonds:                  10
##########                       Formal_Charge:          -0.0100002
##########                     HBond_Acceptors:                   9
##########                        HBond_Donors:                   5
##########                         Heavy_Atoms:                  23
##########                          Grid_Score:          -29.162962
##########                     Grid_vdw_energy:          -28.818140
##########                      Grid_es_energy:           -0.344823
##########           Internal_energy_repulsive:           10.584509

@<TRIPOS>MOLECULE
ZINC000057429281
 39 39 1 0 0
SMALL
USER_CHARGES


@<TRIPOS>ATOM
      1 C1         -9.6369    0.1215   59.4312 C.3     1  ZINC000057429281   -0.1500
      2 C2         -9.7168   -0.9822   60.4878 C.3     1  ZINC000057429281   -0.0400
      3 H3         -8.8673   -1.6557   60.3746 H       1  ZINC000057429281    0.0900
      4 C4        -11.0176   -1.7671   60.3081 C.3     1  ZINC000057429281   -0.1300
      5 C5        -10.9240   -2.6172   59.0672 C.2     1  ZINC000057429281    0.5200
      6 O6         -9.8780   -3.1606   58.7820 O.2     1  ZINC000057429281   -0.5300
      7 N7        -12.0027   -2.7736   58.2745 N.am    1  ZINC000057429281   -0.7000
      8 C8        -11.9113   -3.5985   57.0673 C.3     1  ZINC000057429281    0.1100
      9 C9        -13.2966   -3.9840   56.6162 C.2     1  ZINC000057429281    0.5200
     10 N10       -13.9143   -3.2714   55.6534 N.am    1  ZINC000057429281   -0.8500
     11 O11       -13.8554   -4.9353   57.1196 O.2     1  ZINC000057429281   -0.5100
     12 C12       -11.2266   -2.8172   55.9755 C.2     1  ZINC000057429281    0.5300
     13 N13       -11.3285   -1.4737   55.9430 N.am    1  ZINC000057429281   -0.8400
     14 O14       -10.5840   -3.3973   55.1263 O.2     1  ZINC000057429281   -0.5100
     15 C15        -9.6884   -0.3647   61.8622 C.ar    1  ZINC000057429281   -0.0500
     16 C16        -8.6174   -0.6004   62.7038 C.ar    1  ZINC000057429281   -0.1200
     17 C17        -8.5914   -0.0339   63.9645 C.ar    1  ZINC000057429281   -0.0700
     18 C18        -9.6361    0.7686   64.3834 C.ar    1  ZINC000057429281   -0.1900
     19 C19        -9.6079    1.3858   65.7579 C.3     1  ZINC000057429281    0.5100
     20 F20        -8.9626    2.6257   65.6993 F       1  ZINC000057429281   -0.1800
     21 F21       -10.9176    1.5630   66.2166 F       1  ZINC000057429281   -0.1800
     22 F22        -8.9172    0.5416   66.6340 F       1  ZINC000057429281   -0.1800
     23 C23       -10.7064    1.0054   63.5413 C.ar    1  ZINC000057429281   -0.0700
     24 C24       -10.7306    0.4421   62.2791 C.ar    1  ZINC000057429281   -0.1100
     25 H25        -8.7101    0.6807   59.5592 H       1  ZINC000057429281    0.0600
     26 H26        -9.6573   -0.3252   58.4370 H       1  ZINC000057429281    0.0800
     27 H27       -10.4863    0.7951   59.5444 H       1  ZINC000057429281    0.0500
     28 H28       -11.1786   -2.4071   61.1756 H       1  ZINC000057429281    0.1000
     29 H29       -11.8510   -1.0717   60.2099 H       1  ZINC000057429281    0.1000
     30 H30       -12.8397   -2.3399   58.5032 H       1  ZINC000057429281    0.4200
     31 H31       -11.3365   -4.4986   57.2851 H       1  ZINC000057429281    0.1300
     32 H32       -14.8060   -3.5194   55.3629 H       1  ZINC000057429281    0.4000
     33 H33       -13.4673   -2.5104   55.2510 H       1  ZINC000057429281    0.4100
     34 H34       -10.8879   -0.9707   55.2403 H       1  ZINC000057429281    0.4000
     35 H35       -11.8424   -1.0097   56.6224 H       1  ZINC000057429281    0.4100
     36 H36        -7.8012   -1.2273   62.3765 H       1  ZINC000057429281    0.1400
     37 H37        -7.7550   -0.2186   64.6223 H       1  ZINC000057429281    0.1400
     38 H38       -11.5224    1.6327   63.8684 H       1  ZINC000057429281    0.1400
     39 H39       -11.5668    0.6271   61.6212 H       1  ZINC000057429281    0.1400
@<TRIPOS>BOND
     1     1     2    1
     2     1    25    1
     3     1    26    1
     4     1    27    1
     5     2     3    1
     6     2     4    1
     7     2    15    1
     8     4     5    1
     9     4    28    1
    10     4    29    1
    11     5     6    2
    12     5     7   am
    13     7     8    1
    14     7    30    1
    15     8     9    1
    16     8    12    1
    17     8    31    1
    18     9    10   am
    19     9    11    2
    20    10    32    1
    21    10    33    1
    22    12    13   am
    23    12    14    2
    24    13    34    1
    25    13    35    1
    26    15    24   ar
    27    15    16   ar
    28    16    17   ar
    29    16    36    1
    30    17    18   ar
    31    17    37    1
    32    18    19    1
    33    18    23   ar
    34    19    20    1
    35    19    21    1
    36    19    22    1
    37    23    24   ar
    38    23    38    1
    39    24    39    1
@<TRIPOS>SUBSTRUCTURE
     1 ZINC000057429281        1 TEMP              0 ****  ****    0 ROOT


##########                                Name:    ZINC000800038938
##########                DOCK_Rotatable_Bonds:                   6
##########                         Heavy_Atoms:                  25
##########                    Molecular_Weight:             386.274
##########                DOCK_Rotatable_Bonds:                   6
##########                       Formal_Charge:           0.0200003
##########                     HBond_Acceptors:                   7
##########                        HBond_Donors:                   0
##########                         Heavy_Atoms:                  25
##########                          Grid_Score:          -29.152964
##########                     Grid_vdw_energy:          -28.797764
##########                      Grid_es_energy:           -0.355200
##########           Internal_energy_repulsive:           11.296571

@<TRIPOS>MOLECULE
ZINC000800038938
 46 48 1 0 0
SMALL
USER_CHARGES


@<TRIPOS>ATOM
      1 C1        -15.7096   -3.8462   56.5139 C.3     1  ZINC000800038938    0.0300
      2 O2        -14.8688   -2.8027   57.0104 O.3     1  ZINC000800038938   -0.3800
      3 C3        -13.4720   -3.0497   56.8370 C.3     1  ZINC000800038938    0.0900
      4 H4        -13.2264   -4.0563   57.1754 H       1  ZINC000800038938    0.0700
      5 C5        -12.6497   -2.0111   57.6275 C.3     1  ZINC000800038938   -0.1400
      6 C6        -11.4274   -1.7244   56.7205 C.3     1  ZINC000800038938   -0.1400
      7 C7        -12.0435   -1.7461   55.2996 C.3     1  ZINC000800038938    0.0900
      8 H8        -12.5271   -0.7946   55.0788 H       1  ZINC000800038938    0.0900
      9 O9        -11.0240   -2.0388   54.3080 O.3     1  ZINC000800038938   -0.3500
     10 C10       -11.4325   -2.1784   53.0369 C.2     1  ZINC000800038938    0.4500
     11 O11       -11.7516   -3.2670   52.6211 O.2     1  ZINC000800038938   -0.4800
     12 C12       -11.4928   -0.9775   52.1287 C.3     1  ZINC000800038938    0.1500
     13 H13       -11.2669   -1.2755   51.1048 H       1  ZINC000800038938    0.1200
     14 C14       -12.8975   -0.3413   52.1923 C.3     1  ZINC000800038938   -0.1200
     15 C15       -12.5932    1.1791   52.1371 C.3     1  ZINC000800038938   -0.1300
     16 C16       -11.2730    1.2616   52.9433 C.3     1  ZINC000800038938    0.0900
     17 N17       -10.5294    0.0381   52.5780 N.am    1  ZINC000800038938   -0.6000
     18 C18        -9.1927   -0.1192   52.6488 C.2     1  ZINC000800038938    0.5800
     19 O19        -8.6869   -1.1748   52.3209 O.2     1  ZINC000800038938   -0.4900
     20 C20        -8.3423    0.9914   53.1251 C.ar    1  ZINC000800038938   -0.1100
     21 C21        -8.3508    1.3526   54.4733 C.ar    1  ZINC000800038938   -0.0700
     22 C22        -7.5538    2.3912   54.9115 C.ar    1  ZINC000800038938   -0.0400
     23 Cl23       -7.5627    2.8416   56.5881 Cl      1  ZINC000800038938   -0.0500
     24 C24        -6.7470    3.0743   54.0169 C.ar    1  ZINC000800038938   -0.0700
     25 C25        -6.7339    2.7221   52.6796 C.ar    1  ZINC000800038938   -0.1000
     26 C26        -7.5215    1.6810   52.2288 C.ar    1  ZINC000800038938    0.0100
     27 Cl27       -7.5037    1.2404   50.5497 Cl      1  ZINC000800038938   -0.0300
     28 C28       -13.0868   -2.8825   55.3567 C.3     1  ZINC000800038938   -0.1200
     29 H29       -16.7537   -3.5829   56.6831 H       1  ZINC000800038938    0.0900
     30 H30       -15.5359   -3.9755   55.4457 H       1  ZINC000800038938    0.0400
     31 H31       -15.4803   -4.7761   57.0345 H       1  ZINC000800038938    0.0400
     32 H32       -13.2312   -1.1023   57.7828 H       1  ZINC000800038938    0.0800
     33 H33       -12.3272   -2.4265   58.5823 H       1  ZINC000800038938    0.0800
     34 H34       -11.0028   -0.7452   56.9425 H       1  ZINC000800038938    0.0800
     35 H35       -10.6752   -2.5059   56.8274 H       1  ZINC000800038938    0.0800
     36 H36       -13.4979   -0.6458   51.3350 H       1  ZINC000800038938    0.1000
     37 H37       -13.3965   -0.6012   53.1258 H       1  ZINC000800038938    0.0900
     38 H38       -12.4448    1.5109   51.1094 H       1  ZINC000800038938    0.0900
     39 H39       -13.3830    1.7534   52.6212 H       1  ZINC000800038938    0.1000
     40 H40       -10.7075    2.1477   52.6555 H       1  ZINC000800038938    0.0900
     41 H41       -11.4819    1.2746   54.0131 H       1  ZINC000800038938    0.0800
     42 H42        -8.9797    0.8210   55.1720 H       1  ZINC000800038938    0.1500
     43 H43        -6.1255    3.8860   54.3651 H       1  ZINC000800038938    0.1500
     44 H44        -6.1026    3.2592   51.9871 H       1  ZINC000800038938    0.1500
     45 H45       -12.6530   -3.8071   54.9760 H       1  ZINC000800038938    0.0900
     46 H46       -13.9653   -2.6127   54.7706 H       1  ZINC000800038938    0.0900
@<TRIPOS>BOND
     1     1     2    1
     2     1    29    1
     3     1    30    1
     4     1    31    1
     5     2     3    1
     6     3     4    1
     7     3    28    1
     8     3     5    1
     9     5     6    1
    10     5    32    1
    11     5    33    1
    12     6     7    1
    13     6    34    1
    14     6    35    1
    15     7     8    1
    16     7     9    1
    17     7    28    1
    18     9    10    1
    19    10    11    2
    20    10    12    1
    21    12    13    1
    22    12    17    1
    23    12    14    1
    24    14    15    1
    25    14    36    1
    26    14    37    1
    27    15    16    1
    28    15    38    1
    29    15    39    1
    30    16    17    1
    31    16    40    1
    32    16    41    1
    33    17    18   am
    34    18    19    2
    35    18    20    1
    36    20    26   ar
    37    20    21   ar
    38    21    22   ar
    39    21    42    1
    40    22    23    1
    41    22    24   ar
    42    24    25   ar
    43    24    43    1
    44    25    26   ar
    45    25    44    1
    46    26    27    1
    47    28    45    1
    48    28    46    1
@<TRIPOS>SUBSTRUCTURE
     1 ZINC000800038938        1 TEMP              0 ****  ****    0 ROOT


##########                                Name:    ZINC000763800048
##########                DOCK_Rotatable_Bonds:                   8
##########                         Heavy_Atoms:                  23
##########                    Molecular_Weight:             329.783
##########                DOCK_Rotatable_Bonds:                   8
##########                       Formal_Charge:           0.0199994
##########                     HBond_Acceptors:                   5
##########                        HBond_Donors:                   1
##########                         Heavy_Atoms:                  23
##########                          Grid_Score:          -29.140785
##########                     Grid_vdw_energy:          -28.695494
##########                      Grid_es_energy:           -0.445292
##########           Internal_energy_repulsive:           11.442235

@<TRIPOS>MOLECULE
ZINC000763800048
 39 40 1 0 0
SMALL
USER_CHARGES


@<TRIPOS>ATOM
      1 C1        -13.6913   -2.3407   60.1440 C.3     1  ZINC000763800048    0.0400
      2 O2        -14.7471   -3.2717   60.5002 O.3     1  ZINC000763800048   -0.3600
      3 C3        -15.8848   -3.2032   59.7912 C.2     1  ZINC000763800048    0.4600
      4 O4        -16.8777   -3.7669   60.1863 O.2     1  ZINC000763800048   -0.4900
      5 C5        -15.9235   -2.4232   58.5024 C.3     1  ZINC000763800048   -0.0700
      6 C6        -15.2170   -3.2019   57.4226 C.ar    1  ZINC000763800048   -0.0600
      7 C7        -15.3695   -4.5742   57.3487 C.ar    1  ZINC000763800048   -0.1200
      8 C8        -14.7229   -5.2926   56.3594 C.ar    1  ZINC000763800048   -0.1000
      9 C9        -13.9230   -4.6410   55.4416 C.ar    1  ZINC000763800048   -0.1100
     10 C10       -13.7681   -3.2622   55.5128 C.ar    1  ZINC000763800048    0.1500
     11 N11       -12.9591   -2.5993   54.5850 N.am    1  ZINC000763800048   -0.6700
     12 C12       -11.6420   -2.4471   54.8267 C.2     1  ZINC000763800048    0.5500
     13 O13       -11.1567   -2.8868   55.8527 O.2     1  ZINC000763800048   -0.5200
     14 C14       -10.7951   -1.7532   53.8556 C.2     1  ZINC000763800048   -0.2100
     15 C15       -10.4645   -0.4604   54.0515 C.2     1  ZINC000763800048   -0.0100
     16 C16        -9.6116    0.2368   53.0758 C.ar    1  ZINC000763800048   -0.0800
     17 C17        -8.7194   -0.4873   52.2784 C.ar    1  ZINC000763800048   -0.0900
     18 C18        -7.9236    0.1724   51.3667 C.ar    1  ZINC000763800048   -0.1100
     19 C19        -8.0054    1.5496   51.2396 C.ar    1  ZINC000763800048   -0.0200
     20 Cl20       -6.9987    2.3721   50.0891 Cl      1  ZINC000763800048   -0.0600
     21 C21        -8.8871    2.2734   52.0259 C.ar    1  ZINC000763800048   -0.1100
     22 C22        -9.6932    1.6263   52.9377 C.ar    1  ZINC000763800048   -0.0800
     23 C23       -14.4226   -2.5433   56.5045 C.ar    1  ZINC000763800048   -0.1300
     24 H24       -12.8302   -2.5024   60.7925 H       1  ZINC000763800048    0.1000
     25 H25       -13.3997   -2.5017   59.1062 H       1  ZINC000763800048    0.0600
     26 H26       -14.0512   -1.3191   60.2660 H       1  ZINC000763800048    0.0600
     27 H27       -16.9600   -2.2555   58.2101 H       1  ZINC000763800048    0.1200
     28 H28       -15.4257   -1.4638   58.6431 H       1  ZINC000763800048    0.1200
     29 H29       -15.9944   -5.0862   58.0653 H       1  ZINC000763800048    0.1200
     30 H30       -14.8434   -6.3644   56.3048 H       1  ZINC000763800048    0.1300
     31 H31       -13.4182   -5.2025   54.6695 H       1  ZINC000763800048    0.1400
     32 H32       -13.3458   -2.2488   53.7673 H       1  ZINC000763800048    0.4100
     33 H33       -10.4350   -2.2763   52.9821 H       1  ZINC000763800048    0.1300
     34 H34       -10.8257    0.0631   54.9243 H       1  ZINC000763800048    0.1400
     35 H35        -8.6541   -1.5609   52.3769 H       1  ZINC000763800048    0.1400
     36 H36        -7.2343   -0.3856   50.7502 H       1  ZINC000763800048    0.1400
     37 H37        -8.9456    3.3468   51.9214 H       1  ZINC000763800048    0.1400
     38 H38       -10.3803    2.1917   53.5498 H       1  ZINC000763800048    0.1400
     39 H39       -14.3046   -1.4713   56.5624 H       1  ZINC000763800048    0.1300
@<TRIPOS>BOND
     1     1     2    1
     2     1    24    1
     3     1    25    1
     4     1    26    1
     5     2     3    1
     6     3     4    2
     7     3     5    1
     8     5     6    1
     9     5    27    1
    10     5    28    1
    11     6    23   ar
    12     6     7   ar
    13     7     8   ar
    14     7    29    1
    15     8     9   ar
    16     8    30    1
    17     9    10   ar
    18     9    31    1
    19    10    11    1
    20    10    23   ar
    21    11    12   am
    22    11    32    1
    23    12    13    2
    24    12    14    1
    25    14    15    2
    26    14    33    1
    27    15    16    1
    28    15    34    1
    29    16    22   ar
    30    16    17   ar
    31    17    18   ar
    32    17    35    1
    33    18    19   ar
    34    18    36    1
    35    19    20    1
    36    19    21   ar
    37    21    22   ar
    38    21    37    1
    39    22    38    1
    40    23    39    1
@<TRIPOS>SUBSTRUCTURE
     1 ZINC000763800048        1 TEMP              0 ****  ****    0 ROOT


##########                                Name:    ZINC001300804061
##########                DOCK_Rotatable_Bonds:                   5
##########                         Heavy_Atoms:                  27
##########                    Molecular_Weight:              390.55
##########                DOCK_Rotatable_Bonds:                   5
##########                       Formal_Charge:                0.01
##########                     HBond_Acceptors:                   7
##########                        HBond_Donors:                   0
##########                         Heavy_Atoms:                  27
##########                          Grid_Score:          -29.137131
##########                     Grid_vdw_energy:          -29.422132
##########                      Grid_es_energy:            0.285002
##########           Internal_energy_repulsive:            9.556747

@<TRIPOS>MOLECULE
ZINC001300804061
 57 60 1 0 0
SMALL
USER_CHARGES


@<TRIPOS>ATOM
      1 C1         -2.4058    5.2873   54.4646 C.3     1  ZINC001300804061    0.0300
      2 O2         -2.3979    3.9852   53.8758 O.3     1  ZINC001300804061   -0.3800
      3 C3         -3.2305    3.8646   52.7207 C.3     1  ZINC001300804061    0.1000
      4 H4         -3.7439    4.8094   52.5419 H       1  ZINC001300804061    0.0700
      5 C5         -4.2623    2.7575   52.9480 C.3     1  ZINC001300804061    0.0500
      6 N6         -5.1048    2.6188   51.7533 N.3     1  ZINC001300804061   -0.4600
      7 C7         -6.1318    1.7165   51.9722 C.2     1  ZINC001300804061    0.3600
      8 N8         -6.1009    0.4270   51.7253 N.2     1  ZINC001300804061   -0.3000
      9 N9         -7.2223   -0.1122   52.0463 N.2     1  ZINC001300804061   -0.2500
     10 C10        -8.0402    0.8025   52.5194 C.2     1  ZINC001300804061    0.2600
     11 C11        -9.4157    0.5853   52.9944 C.2     1  ZINC001300804061    0.0400
     12 C12        -9.9042    0.9341   54.2176 C.2     1  ZINC001300804061   -0.1300
     13 C13       -11.2564    0.5414   54.2410 C.2     1  ZINC001300804061   -0.2100
     14 C14       -11.5258   -0.0213   53.0461 C.2     1  ZINC001300804061    0.0100
     15 C15       -12.8564   -0.5881   52.6226 C.3     1  ZINC001300804061   -0.0800
     16 O16       -10.4138    0.0119   52.2934 O.3     1  ZINC001300804061   -0.1700
     17 N17        -7.3629    2.0015   52.4909 N.pl3   1  ZINC001300804061   -0.4600
     18 C18        -7.8617    3.3105   52.9194 C.3     1  ZINC001300804061    0.1200
     19 C19        -8.9364    3.7916   51.9425 C.3     1  ZINC001300804061   -0.1000
     20 H20        -9.6814    3.0071   51.8090 H       1  ZINC001300804061    0.0900
     21 C21        -8.2914    4.1118   50.5972 C.3     1  ZINC001300804061   -0.1200
     22 C22        -9.3562    4.3362   49.5277 C.3     1  ZINC001300804061   -0.1200
     23 C23       -10.0871    5.6562   49.7869 C.3     1  ZINC001300804061   -0.0800
     24 S24       -10.9497    5.5459   51.3828 S.3     1  ZINC001300804061   -0.2600
     25 C25        -9.6124    5.0440   52.5069 C.3     1  ZINC001300804061   -0.0700
     26 C26        -4.3064    2.2336   50.5826 C.3     1  ZINC001300804061    0.0600
     27 C27        -3.2759    3.3250   50.2846 C.3     1  ZINC001300804061   -0.1100
     28 C28        -2.3697    3.5123   51.5045 C.3     1  ZINC001300804061   -0.0900
     29 H29        -1.8258    2.5881   51.6996 H       1  ZINC001300804061    0.0800
     30 C30        -1.3753    4.6432   51.2339 C.3     1  ZINC001300804061   -0.1400
     31 H31        -2.0532    6.0176   53.7362 H       1  ZINC001300804061    0.0400
     32 H32        -3.4204    5.5410   54.7716 H       1  ZINC001300804061    0.0400
     33 H33        -1.7498    5.2963   55.3350 H       1  ZINC001300804061    0.0900
     34 H34        -3.7483    1.8159   53.1412 H       1  ZINC001300804061    0.0700
     35 H35        -4.8863    3.0128   53.8046 H       1  ZINC001300804061    0.0800
     36 H36        -9.3596    1.4177   55.0151 H       1  ZINC001300804061    0.1600
     37 H37       -11.9472    0.6674   55.0616 H       1  ZINC001300804061    0.1600
     38 H38       -13.4503    0.1939   52.1494 H       1  ZINC001300804061    0.0900
     39 H39       -12.6961   -1.4012   51.9145 H       1  ZINC001300804061    0.0800
     40 H40       -13.3851   -0.9668   53.4973 H       1  ZINC001300804061    0.0900
     41 H41        -8.2899    3.2269   53.9183 H       1  ZINC001300804061    0.1100
     42 H42        -7.0389    4.0254   52.9354 H       1  ZINC001300804061    0.1000
     43 H43        -7.6855    5.0125   50.6951 H       1  ZINC001300804061    0.0700
     44 H44        -7.6524    3.2807   50.2987 H       1  ZINC001300804061    0.0800
     45 H45        -8.8821    4.3715   48.5468 H       1  ZINC001300804061    0.0800
     46 H46       -10.0725    3.5150   49.5522 H       1  ZINC001300804061    0.0800
     47 H47        -9.3661    6.4731   49.8170 H       1  ZINC001300804061    0.0800
     48 H48       -10.8113    5.8349   48.9920 H       1  ZINC001300804061    0.1100
     49 H49       -10.0263    4.8214   53.4904 H       1  ZINC001300804061    0.1000
     50 H50        -8.8828    5.8496   52.5892 H       1  ZINC001300804061    0.0900
     51 H51        -3.7921    1.2944   50.7868 H       1  ZINC001300804061    0.0600
     52 H52        -4.9623    2.1084   49.7209 H       1  ZINC001300804061    0.0800
     53 H53        -2.6732    3.0315   49.4251 H       1  ZINC001300804061    0.0800
     54 H54        -3.7899    4.2611   50.0666 H       1  ZINC001300804061    0.0800
     55 H55        -1.9199    5.5675   51.0411 H       1  ZINC001300804061    0.0500
     56 H56        -0.7306    4.7758   52.1027 H       1  ZINC001300804061    0.0600
     57 H57        -0.7669    4.3920   50.3651 H       1  ZINC001300804061    0.0600
@<TRIPOS>BOND
     1     1     2    1
     2     1    31    1
     3     1    32    1
     4     1    33    1
     5     2     3    1
     6     3     4    1
     7     3    28    1
     8     3     5    1
     9     5     6    1
    10     5    34    1
    11     5    35    1
    12     6     7    1
    13     6    26    1
    14     7    17    1
    15     7     8    2
    16     8     9    1
    17     9    10    2
    18    10    11    1
    19    10    17    1
    20    11    16    1
    21    11    12    2
    22    12    13    1
    23    12    36    1
    24    13    14    2
    25    13    37    1
    26    14    15    1
    27    14    16    1
    28    15    38    1
    29    15    39    1
    30    15    40    1
    31    17    18    1
    32    18    19    1
    33    18    41    1
    34    18    42    1
    35    19    20    1
    36    19    25    1
    37    19    21    1
    38    21    22    1
    39    21    43    1
    40    21    44    1
    41    22    23    1
    42    22    45    1
    43    22    46    1
    44    23    24    1
    45    23    47    1
    46    23    48    1
    47    24    25    1
    48    25    49    1
    49    25    50    1
    50    26    27    1
    51    26    51    1
    52    26    52    1
    53    27    28    1
    54    27    53    1
    55    27    54    1
    56    28    29    1
    57    28    30    1
    58    30    55    1
    59    30    56    1
    60    30    57    1
@<TRIPOS>SUBSTRUCTURE
     1 ZINC001300804061        1 TEMP              0 ****  ****    0 ROOT


##########                                Name:    ZINC001707804910
##########                DOCK_Rotatable_Bonds:                   4
##########                         Heavy_Atoms:                  26
##########                    Molecular_Weight:             358.403
##########                DOCK_Rotatable_Bonds:                   4
##########                       Formal_Charge:          -0.0399996
##########                     HBond_Acceptors:                  10
##########                        HBond_Donors:                   0
##########                         Heavy_Atoms:                  26
##########                          Grid_Score:          -29.086866
##########                     Grid_vdw_energy:          -27.998724
##########                      Grid_es_energy:           -1.088143
##########           Internal_energy_repulsive:            7.412009

@<TRIPOS>MOLECULE
ZINC001707804910
 48 51 1 0 0
SMALL
USER_CHARGES


@<TRIPOS>ATOM
      1 C1         -9.2971    4.3192   49.3841 C.3     1  ZINC001707804910   -0.0700
      2 C2         -8.4988    3.4579   50.3285 C.2     1  ZINC001707804910    0.0700
      3 N3         -7.2551    3.0869   50.1630 N.2     1  ZINC001707804910   -0.2800
      4 N4         -6.8843    2.2974   51.2592 N.pl3   1  ZINC001707804910   -0.3700
      5 C5         -5.5738    1.6777   51.4711 C.3     1  ZINC001707804910    0.0900
      6 C6         -7.9475    2.2085   52.0856 C.2     1  ZINC001707804910    0.0500
      7 C7         -7.9987    1.4548   53.3896 C.3     1  ZINC001707804910    0.1800
      8 N8         -9.1175    1.9491   54.1957 N.pl3   1  ZINC001707804910   -0.4600
      9 C9         -9.1489    3.0855   54.9556 C.2     1  ZINC001707804910    0.1900
     10 C10        -8.0275    4.0780   55.1248 C.3     1  ZINC001707804910   -0.0700
     11 N11       -10.3282    3.1516   55.5055 N.2     1  ZINC001707804910   -0.2800
     12 N12       -11.0386    2.1420   55.1476 N.2     1  ZINC001707804910   -0.3000
     13 C13       -10.3466    1.3741   54.3394 C.2     1  ZINC001707804910    0.3500
     14 N14       -10.7793    0.1969   53.7500 N.3     1  ZINC001707804910   -0.4600
     15 C15       -11.5006    0.4685   52.4982 C.3     1  ZINC001707804910    0.0200
     16 C16       -11.9074   -0.8583   51.8517 C.3     1  ZINC001707804910    0.0700
     17 O17       -12.6948   -1.6122   52.7775 O.3     1  ZINC001707804910   -0.3600
     18 C18       -12.0228   -1.8954   54.0078 C.3     1  ZINC001707804910    0.2000
     19 H19       -11.1325   -2.4914   53.8074 H       1  ZINC001707804910    0.1000
     20 C20       -12.9457   -2.6607   54.9208 C.2     1  ZINC001707804910    0.1600
     21 N21       -13.7632   -2.1485   55.7963 N.2     1  ZINC001707804910   -0.2500
     22 N22       -14.3947   -3.0956   56.3960 N.2     1  ZINC001707804910   -0.2900
     23 C23       -14.0016   -4.2442   55.9236 C.2     1  ZINC001707804910    0.1700
     24 C24       -14.4934   -5.6016   56.3555 C.3     1  ZINC001707804910   -0.0600
     25 O25       -13.0807   -3.9963   54.9771 O.3     1  ZINC001707804910   -0.2200
     26 C26       -11.6170   -0.5790   54.6760 C.3     1  ZINC001707804910    0.0400
     27 C27        -8.9576    2.9219   51.5362 C.2     1  ZINC001707804910   -0.2300
     28 H28        -9.1682    5.3678   49.6518 H       1  ZINC001707804910    0.0800
     29 H29        -8.9486    4.1591   48.3637 H       1  ZINC001707804910    0.0700
     30 H30       -10.3519    4.0535   49.4536 H       1  ZINC001707804910    0.0800
     31 H31        -4.8986    2.4022   51.9264 H       1  ZINC001707804910    0.0800
     32 H32        -5.6814    0.8168   52.1308 H       1  ZINC001707804910    0.0900
     33 H33        -5.1663    1.3532   50.5136 H       1  ZINC001707804910    0.0900
     34 H34        -8.1362    0.3921   53.1898 H       1  ZINC001707804910    0.1100
     35 H35        -7.0655    1.6046   53.9326 H       1  ZINC001707804910    0.1200
     36 H36        -8.0419    4.7869   54.2969 H       1  ZINC001707804910    0.0900
     37 H37        -8.1560    4.6145   56.0648 H       1  ZINC001707804910    0.1000
     38 H38        -7.0738    3.5504   55.1350 H       1  ZINC001707804910    0.0700
     39 H39       -12.3923    1.0577   52.7123 H       1  ZINC001707804910    0.0700
     40 H40       -10.8530    1.0215   51.8177 H       1  ZINC001707804910    0.0900
     41 H41       -12.4920   -0.6611   50.9530 H       1  ZINC001707804910    0.1200
     42 H42       -11.0138   -1.4241   51.5886 H       1  ZINC001707804910    0.0700
     43 H43       -15.3509   -5.8881   55.7465 H       1  ZINC001707804910    0.1000
     44 H44       -13.6964   -6.3343   56.2284 H       1  ZINC001707804910    0.1000
     45 H45       -14.7887   -5.5644   57.4041 H       1  ZINC001707804910    0.1100
     46 H46       -11.0545   -0.7908   55.5854 H       1  ZINC001707804910    0.1000
     47 H47       -12.5106   -0.0067   54.9251 H       1  ZINC001707804910    0.0800
     48 H48        -9.9455    3.0495   51.9534 H       1  ZINC001707804910    0.1500
@<TRIPOS>BOND
     1     1     2    1
     2     1    28    1
     3     1    29    1
     4     1    30    1
     5     2    27    1
     6     2     3    2
     7     3     4    1
     8     4     5    1
     9     4     6    1
    10     5    31    1
    11     5    32    1
    12     5    33    1
    13     6     7    1
    14     6    27    2
    15     7     8    1
    16     7    34    1
    17     7    35    1
    18     8    13    1
    19     8     9    1
    20     9    10    1
    21     9    11    2
    22    10    36    1
    23    10    37    1
    24    10    38    1
    25    11    12    1
    26    12    13    2
    27    13    14    1
    28    14    26    1
    29    14    15    1
    30    15    16    1
    31    15    39    1
    32    15    40    1
    33    16    17    1
    34    16    41    1
    35    16    42    1
    36    17    18    1
    37    18    19    1
    38    18    20    1
    39    18    26    1
    40    20    25    1
    41    20    21    2
    42    21    22    1
    43    22    23    2
    44    23    24    1
    45    23    25    1
    46    24    43    1
    47    24    44    1
    48    24    45    1
    49    26    46    1
    50    26    47    1
    51    27    48    1
@<TRIPOS>SUBSTRUCTURE
     1 ZINC001707804910        1 TEMP              0 ****  ****    0 ROOT


##########                                Name:    ZINC000441887161
##########                DOCK_Rotatable_Bonds:                   6
##########                         Heavy_Atoms:                  27
##########                    Molecular_Weight:             383.514
##########                DOCK_Rotatable_Bonds:                   6
##########                       Formal_Charge:          -0.0300002
##########                     HBond_Acceptors:                   6
##########                        HBond_Donors:                   1
##########                         Heavy_Atoms:                  27
##########                          Grid_Score:          -29.085045
##########                     Grid_vdw_energy:          -29.290419
##########                      Grid_es_energy:            0.205373
##########           Internal_energy_repulsive:           25.019709

@<TRIPOS>MOLECULE
ZINC000441887161
 52 54 1 0 0
SMALL
USER_CHARGES


@<TRIPOS>ATOM
      1 C1        -16.6335   -3.4885   59.5429 C.3     1  ZINC000441887161   -0.1200
      2 C2        -15.5660   -2.9012   58.6560 C.ar    1  ZINC000441887161   -0.0700
      3 C3        -14.8223   -3.7245   57.8318 C.ar    1  ZINC000441887161   -0.1200
      4 C4        -13.8430   -3.1857   57.0181 C.ar    1  ZINC000441887161   -0.0900
      5 C5        -13.6079   -1.8238   57.0286 C.ar    1  ZINC000441887161   -0.1100
      6 C6        -12.5401   -1.2365   56.1421 C.3     1  ZINC000441887161    0.1900
      7 H7        -12.8740   -0.2712   55.7616 H       1  ZINC000441887161    0.1000
      8 C8        -11.2536   -1.0494   56.9488 C.3     1  ZINC000441887161    0.1000
      9 N9        -11.0142   -2.2393   57.7694 N.pl3   1  ZINC000441887161   -0.4600
     10 C10       -10.9031   -3.5272   57.3194 C.2     1  ZINC000441887161   -0.0500
     11 C11       -10.6860   -4.3003   58.4006 C.2     1  ZINC000441887161   -0.0200
     12 N12       -10.6652   -3.5059   59.4811 N.2     1  ZINC000441887161   -0.4900
     13 C13       -10.8561   -2.2694   59.1101 C.2     1  ZINC000441887161    0.1800
     14 N14       -12.2851   -2.1423   55.0192 N.am    1  ZINC000441887161   -1.1100
     15 S15       -12.2235   -1.5490   53.4744 S.o2    1  ZINC000441887161    2.6900
     16 O16       -11.8146   -2.6287   52.6460 O.2     1  ZINC000441887161   -0.9600
     17 O17       -13.4317   -0.8288   53.2727 O.2     1  ZINC000441887161   -0.9500
     18 C18       -10.9223   -0.3621   53.4230 C.ar    1  ZINC000441887161   -0.6800
     19 C19       -11.0506    0.8340   54.1036 C.ar    1  ZINC000441887161   -0.0300
     20 C20       -10.0297    1.7654   54.0633 C.ar    1  ZINC000441887161   -0.1300
     21 C21        -8.8804    1.5002   53.3428 C.ar    1  ZINC000441887161   -0.0200
     22 C22        -7.7677    2.5156   53.2984 C.3     1  ZINC000441887161   -0.1300
     23 C23        -8.7515    0.3032   52.6630 C.ar    1  ZINC000441887161   -0.1000
     24 C24        -7.4982    0.0138   51.8778 C.3     1  ZINC000441887161   -0.1200
     25 C25        -9.7704   -0.6295   52.7065 C.ar    1  ZINC000441887161   -0.0100
     26 C26       -14.3528   -1.0000   57.8521 C.ar    1  ZINC000441887161   -0.0700
     27 C27       -14.0969    0.4850   57.8633 C.3     1  ZINC000441887161   -0.1300
     28 C28       -15.3344   -1.5382   58.6627 C.ar    1  ZINC000441887161   -0.1200
     29 H29       -17.5817   -3.5091   59.0055 H       1  ZINC000441887161    0.0700
     30 H30       -16.3537   -4.5035   59.8250 H       1  ZINC000441887161    0.0700
     31 H31       -16.7374   -2.8777   60.4397 H       1  ZINC000441887161    0.0700
     32 H32       -15.0060   -4.7888   57.8236 H       1  ZINC000441887161    0.1200
     33 H33       -13.2613   -3.8292   56.3746 H       1  ZINC000441887161    0.1200
     34 H34       -10.4154   -0.9033   56.2675 H       1  ZINC000441887161    0.1100
     35 H35       -11.3533   -0.1769   57.5945 H       1  ZINC000441887161    0.1000
     36 H36       -10.9759   -3.8597   56.2944 H       1  ZINC000441887161    0.1700
     37 H37       -10.5522   -5.3719   58.3979 H       1  ZINC000441887161    0.1600
     38 H38       -10.8888   -1.4130   59.7672 H       1  ZINC000441887161    0.2000
     39 H39       -12.1523   -3.0895   55.1807 H       1  ZINC000441887161    0.4200
     40 H40       -11.9486    1.0412   54.6667 H       1  ZINC000441887161    0.1300
     41 H41       -10.1303    2.7003   54.5946 H       1  ZINC000441887161    0.1300
     42 H42        -7.0759    2.3326   54.1206 H       1  ZINC000441887161    0.0800
     43 H43        -7.2361    2.4309   52.3506 H       1  ZINC000441887161    0.0800
     44 H44        -8.1864    3.5177   53.3919 H       1  ZINC000441887161    0.0700
     45 H45        -6.7726   -0.4834   52.5216 H       1  ZINC000441887161    0.0800
     46 H46        -7.7390   -0.6332   51.0344 H       1  ZINC000441887161    0.0700
     47 H47        -7.0762    0.9489   51.5094 H       1  ZINC000441887161    0.0700
     48 H48        -9.6697   -1.5645   52.1755 H       1  ZINC000441887161    0.1400
     49 H49       -14.7265    0.9678   57.1158 H       1  ZINC000441887161    0.0800
     50 H50       -14.3304    0.8867   58.8493 H       1  ZINC000441887161    0.0700
     51 H51       -13.0486    0.6748   57.6326 H       1  ZINC000441887161    0.0600
     52 H52       -15.9163   -0.8947   59.3060 H       1  ZINC000441887161    0.1300
@<TRIPOS>BOND
     1     1     2    1
     2     1    29    1
     3     1    30    1
     4     1    31    1
     5     2    28   ar
     6     2     3   ar
     7     3     4   ar
     8     3    32    1
     9     4     5   ar
    10     4    33    1
    11     5     6    1
    12     5    26   ar
    13     6     7    1
    14     6     8    1
    15     6    14    1
    16     8     9    1
    17     8    34    1
    18     8    35    1
    19     9    13    1
    20     9    10    1
    21    10    11    2
    22    10    36    1
    23    11    12    1
    24    11    37    1
    25    12    13    2
    26    13    38    1
    27    14    15   am
    28    14    39    1
    29    15    16    2
    30    15    17    2
    31    15    18    1
    32    18    25   ar
    33    18    19   ar
    34    19    20   ar
    35    19    40    1
    36    20    21   ar
    37    20    41    1
    38    21    22    1
    39    21    23   ar
    40    22    42    1
    41    22    43    1
    42    22    44    1
    43    23    24    1
    44    23    25   ar
    45    24    45    1
    46    24    46    1
    47    24    47    1
    48    25    48    1
    49    26    27    1
    50    26    28   ar
    51    27    49    1
    52    27    50    1
    53    27    51    1
    54    28    52    1
@<TRIPOS>SUBSTRUCTURE
     1 ZINC000441887161        1 TEMP              0 ****  ****    0 ROOT


##########                                Name:    ZINC000536173632
##########                DOCK_Rotatable_Bonds:                   7
##########                         Heavy_Atoms:                  29
##########                    Molecular_Weight:             407.389
##########                DOCK_Rotatable_Bonds:                   7
##########                       Formal_Charge:        -2.98023e-07
##########                     HBond_Acceptors:                   8
##########                        HBond_Donors:                   0
##########                         Heavy_Atoms:                  29
##########                          Grid_Score:          -29.071665
##########                     Grid_vdw_energy:          -28.595959
##########                      Grid_es_energy:           -0.475705
##########           Internal_energy_repulsive:           13.864007

@<TRIPOS>MOLECULE
ZINC000536173632
 49 51 1 0 0
SMALL
USER_CHARGES


@<TRIPOS>ATOM
      1 C1          2.2817    0.1004   50.7243 C.3     1  ZINC000536173632    0.0400
      2 O2          1.1515    1.0120   50.7378 O.3     1  ZINC000536173632   -0.3500
      3 C3          1.3424    2.2142   51.3148 C.2     1  ZINC000536173632    0.5100
      4 O4          2.4236    2.4937   51.7927 O.2     1  ZINC000536173632   -0.5000
      5 C5          0.2368    3.1927   51.3663 C.ar    1  ZINC000536173632   -0.1300
      6 C6          0.4516    4.4661   51.8966 C.ar    1  ZINC000536173632   -0.0600
      7 C7         -0.5853    5.3750   51.9418 C.ar    1  ZINC000536173632   -0.1300
      8 C8         -1.8359    5.0267   51.4636 C.ar    1  ZINC000536173632   -0.0700
      9 C9         -2.0558    3.7662   50.9367 C.ar    1  ZINC000536173632   -0.0800
     10 C10        -3.4215    3.3959   50.4181 C.3     1  ZINC000536173632   -0.1000
     11 C11        -4.2326    2.7841   51.5311 C.2     1  ZINC000536173632    0.5200
     12 O12        -3.7305    2.6073   52.6209 O.2     1  ZINC000536173632   -0.5200
     13 N13        -5.5159    2.4332   51.3155 N.am    1  ZINC000536173632   -0.6200
     14 C14        -6.1467    2.6379   50.0019 C.3     1  ZINC000536173632    0.0700
     15 C15        -7.4767    3.3704   50.2131 C.3     1  ZINC000536173632    0.0500
     16 O16        -8.2519    2.6672   51.1868 O.3     1  ZINC000536173632   -0.3700
     17 C17        -7.6488    2.6054   52.4816 C.3     1  ZINC000536173632    0.1200
     18 H18        -7.4551    3.6159   52.8416 H       1  ZINC000536173632    0.0800
     19 C19        -8.5773    1.9001   53.4363 C.ar    1  ZINC000536173632   -0.0900
     20 C20        -8.5577    2.2180   54.7811 C.ar    1  ZINC000536173632   -0.0600
     21 C21        -9.4095    1.5709   55.6570 C.ar    1  ZINC000536173632   -0.1200
     22 C22       -10.2810    0.6063   55.1875 C.ar    1  ZINC000536173632   -0.0700
     23 C23       -10.3014    0.2890   53.8420 C.ar    1  ZINC000536173632   -0.1800
     24 C24       -11.2513   -0.7631   53.3302 C.3     1  ZINC000536173632    0.5100
     25 F25       -10.5271   -1.8936   52.9371 F       1  ZINC000536173632   -0.1800
     26 F26       -12.1492   -1.1136   54.3441 F       1  ZINC000536173632   -0.1800
     27 F27       -11.9594   -0.2585   52.2342 F       1  ZINC000536173632   -0.1800
     28 C28        -9.4528    0.9389   52.9658 C.ar    1  ZINC000536173632   -0.0500
     29 C29        -6.3259    1.8286   52.3849 C.3     1  ZINC000536173632    0.0900
     30 C30        -1.0264    2.8499   50.8797 C.ar    1  ZINC000536173632   -0.0400
     31 H31         3.1103    0.5569   50.1828 H       1  ZINC000536173632    0.0600
     32 H32         2.5896   -0.1117   51.7482 H       1  ZINC000536173632    0.0600
     33 H33         1.9935   -0.8283   50.2318 H       1  ZINC000536173632    0.1000
     34 H34         1.4273    4.7390   52.2709 H       1  ZINC000536173632    0.1400
     35 H35        -0.4204    6.3605   52.3518 H       1  ZINC000536173632    0.1400
     36 H36        -2.6443    5.7419   51.5020 H       1  ZINC000536173632    0.1300
     37 H37        -3.9253    4.2898   50.0505 H       1  ZINC000536173632    0.1100
     38 H38        -3.3188    2.6765   49.6056 H       1  ZINC000536173632    0.1100
     39 H39        -5.4927    3.2392   49.3703 H       1  ZINC000536173632    0.1000
     40 H40        -6.3299    1.6734   49.5284 H       1  ZINC000536173632    0.0800
     41 H41        -7.2824    4.3836   50.5648 H       1  ZINC000536173632    0.0600
     42 H42        -8.0241    3.4098   49.2713 H       1  ZINC000536173632    0.1100
     43 H43        -7.8767    2.9717   55.1479 H       1  ZINC000536173632    0.1400
     44 H44        -9.3937    1.8188   56.7080 H       1  ZINC000536173632    0.1400
     45 H45       -10.9460    0.1002   55.8718 H       1  ZINC000536173632    0.1400
     46 H46        -9.4687    0.6911   51.9147 H       1  ZINC000536173632    0.1400
     47 H47        -6.5300    0.7835   52.1521 H       1  ZINC000536173632    0.0800
     48 H48        -5.7903    1.8963   53.3319 H       1  ZINC000536173632    0.1100
     49 H49        -1.1993    1.8666   50.4679 H       1  ZINC000536173632    0.1400
@<TRIPOS>BOND
     1     1     2    1
     2     1    31    1
     3     1    32    1
     4     1    33    1
     5     2     3    1
     6     3     4    2
     7     3     5    1
     8     5    30   ar
     9     5     6   ar
    10     6     7   ar
    11     6    34    1
    12     7     8   ar
    13     7    35    1
    14     8     9   ar
    15     8    36    1
    16     9    10    1
    17     9    30   ar
    18    10    11    1
    19    10    37    1
    20    10    38    1
    21    11    12    2
    22    11    13   am
    23    13    29    1
    24    13    14    1
    25    14    15    1
    26    14    39    1
    27    14    40    1
    28    15    16    1
    29    15    41    1
    30    15    42    1
    31    16    17    1
    32    17    18    1
    33    17    19    1
    34    17    29    1
    35    19    28   ar
    36    19    20   ar
    37    20    21   ar
    38    20    43    1
    39    21    22   ar
    40    21    44    1
    41    22    23   ar
    42    22    45    1
    43    23    24    1
    44    23    28   ar
    45    24    25    1
    46    24    26    1
    47    24    27    1
    48    28    46    1
    49    29    47    1
    50    29    48    1
    51    30    49    1
@<TRIPOS>SUBSTRUCTURE
     1 ZINC000536173632        1 TEMP              0 ****  ****    0 ROOT


##########                                Name:    ZINC000291036115
##########                DOCK_Rotatable_Bonds:                   5
##########                         Heavy_Atoms:                  22
##########                    Molecular_Weight:             366.193
##########                DOCK_Rotatable_Bonds:                   5
##########                       Formal_Charge:                0.01
##########                     HBond_Acceptors:                   7
##########                        HBond_Donors:                   0
##########                         Heavy_Atoms:                  22
##########                          Grid_Score:          -29.054001
##########                     Grid_vdw_energy:          -28.281406
##########                      Grid_es_energy:           -0.772595
##########           Internal_energy_repulsive:            5.941353

@<TRIPOS>MOLECULE
ZINC000291036115
 35 37 1 0 0
SMALL
USER_CHARGES


@<TRIPOS>ATOM
      1 C1        -13.5075   -0.6552   52.9975 C.3     1  <0>        -0.1500
      2 C2        -12.5199   -0.8635   54.1474 C.3     1  <0>        -0.0400
      3 H3        -12.1316    0.1019   54.4721 H       1  <0>         0.0900
      4 C4        -11.3631   -1.7452   53.6728 C.3     1  <0>        -0.0200
      5 C5        -10.2155   -0.8737   53.2318 C.2     1  <0>         0.1900
      6 N6         -9.3964   -1.1065   52.2346 N.2     1  <0>        -0.4500
      7 C7         -8.5422   -0.0678   52.2177 C.2     1  <0>         0.1500
      8 C8         -7.4038    0.1351   51.2512 C.3     1  <0>         0.2300
      9 N9         -7.1929    1.5692   51.0392 N.pl3   1  <0>        -0.3900
     10 C10        -6.4023    2.3826   51.7607 C.2     1  <0>         0.2600
     11 N11        -6.4869    3.5857   51.2536 N.2     1  <0>        -0.5400
     12 C12        -7.3181    3.5797   50.2122 C.2     1  <0>         0.2000
     13 N13        -7.7718    2.3662   50.0382 N.2     1  <0>        -0.3100
     14 N14        -8.8791    0.7290   53.1872 N.2     1  <0>        -0.3600
     15 O15        -9.8417    0.2871   53.7785 O.3     1  <0>         0.0900
     16 C16       -13.2237   -1.5348   55.2985 C.ar    1  <0>        -0.0900
     17 C17       -13.5901   -0.7973   56.4086 C.ar    1  <0>        -0.0700
     18 C18       -14.2362   -1.4114   57.4652 C.ar    1  <0>        -0.1400
     19 C19       -14.5164   -2.7658   57.4116 C.ar    1  <0>         0.1300
     20 F20       -15.1481   -3.3669   58.4435 F       1  <0>        -0.1200
     21 C21       -14.1487   -3.5046   56.2984 C.ar    1  <0>        -0.1300
     22 Br22      -14.5309   -5.3550   56.2225 Br      1  <0>        -0.0200
     23 C23       -13.5074   -2.8868   55.2408 C.ar    1  <0>        -0.0500
     24 H24       -12.9985   -0.1696   52.1649 H       1  <0>         0.0600
     25 H25       -13.8959   -1.6205   52.6728 H       1  <0>         0.0700
     26 H26       -14.3317   -0.0271   53.3356 H       1  <0>         0.0700
     27 H27       -11.0375   -2.3885   54.4903 H       1  <0>         0.1200
     28 H28       -11.6946   -2.3603   52.8363 H       1  <0>         0.1100
     29 H29        -6.4963   -0.3090   51.6603 H       1  <0>         0.1300
     30 H30        -7.6448   -0.3411   50.3008 H       1  <0>         0.1200
     31 H31        -5.8024    2.0935   52.6110 H       1  <0>         0.2200
     32 H32        -7.5723    4.4375   49.6072 H       1  <0>         0.2200
     33 H33       -13.3712    0.2594   56.4507 H       1  <0>         0.1400
     34 H34       -14.5220   -0.8348   58.3324 H       1  <0>         0.1500
     35 H35       -13.2205   -3.4620   54.3730 H       1  <0>         0.1400
@<TRIPOS>BOND
     1     1     2    1
     2     1    24    1
     3     1    25    1
     4     1    26    1
     5     2     3    1
     6     2     4    1
     7     2    16    1
     8     4     5    1
     9     4    27    1
    10     4    28    1
    11     5    15    1
    12     5     6    2
    13     6     7    1
    14     7     8    1
    15     7    14    2
    16     8     9    1
    17     8    29    1
    18     8    30    1
    19     9    13    1
    20     9    10    1
    21    10    11    2
    22    10    31    1
    23    11    12    1
    24    12    13    2
    25    12    32    1
    26    14    15    1
    27    16    23   ar
    28    16    17   ar
    29    17    18   ar
    30    17    33    1
    31    18    19   ar
    32    18    34    1
    33    19    20    1
    34    19    21   ar
    35    21    22    1
    36    21    23   ar
    37    23    35    1
@<TRIPOS>SUBSTRUCTURE
     1 <0>         1 TEMP              0 ****  ****    0 ROOT


##########                                Name:    ZINC000279452407
##########                DOCK_Rotatable_Bonds:                   6
##########                         Heavy_Atoms:                  24
##########                    Molecular_Weight:              375.47
##########                DOCK_Rotatable_Bonds:                   6
##########                       Formal_Charge:          0.00999929
##########                     HBond_Acceptors:                  10
##########                        HBond_Donors:                   3
##########                         Heavy_Atoms:                  24
##########                          Grid_Score:          -29.052616
##########                     Grid_vdw_energy:          -27.660196
##########                      Grid_es_energy:           -1.392420
##########           Internal_energy_repulsive:           27.627558

@<TRIPOS>MOLECULE
ZINC000279452407
 45 47 1 0 0
SMALL
USER_CHARGES


@<TRIPOS>ATOM
      1 C1        -16.0984   -1.5394   56.6417 C.3     1  ZINC000279452407   -0.1600
      2 C2        -16.3665   -2.6394   57.6708 C.3     1  ZINC000279452407    0.0600
      3 H3        -16.9040   -3.4634   57.2016 H       1  ZINC000279452407    0.0700
      4 O4        -17.1384   -2.1101   58.7638 O.3     1  ZINC000279452407   -0.3700
      5 C5        -16.6996   -2.7914   59.9594 C.3     1  ZINC000279452407    0.0500
      6 C6        -15.1631   -2.8959   59.7750 C.3     1  ZINC000279452407   -0.1400
      7 C7        -15.0388   -3.1455   58.2533 C.3     1  ZINC000279452407    0.0700
      8 C8        -13.8704   -2.3421   57.6877 C.3     1  ZINC000279452407    0.1100
      9 N9        -13.6693   -2.7376   56.2835 N.am    1  ZINC000279452407   -0.6300
     10 C10       -13.5602   -1.8123   55.3096 C.2     1  ZINC000279452407    0.7200
     11 O11       -13.6277   -0.6298   55.5842 O.2     1  ZINC000279452407   -0.5800
     12 N12       -13.3761   -2.1978   54.0313 N.am    1  ZINC000279452407   -0.7500
     13 C13       -13.2575   -1.1920   52.9729 C.3     1  ZINC000279452407    0.2000
     14 C14       -11.8022   -0.8770   52.7400 C.2     1  ZINC000279452407   -0.1700
     15 C15       -10.8195   -1.7774   52.6871 C.2     1  ZINC000279452407   -0.1400
     16 C16        -9.5589   -1.2524   52.4612 C.2     1  ZINC000279452407    0.0100
     17 C17        -9.5178    0.0745   52.3306 C.2     1  ZINC000279452407   -0.7900
     18 S18        -8.0613    1.0216   52.0365 S.o2    1  ZINC000279452407    2.7300
     19 N19        -7.4811    1.4993   53.5121 N.am    1  ZINC000279452407   -1.2500
     20 O20        -7.1003    0.1232   51.4992 O.2     1  ZINC000279452407   -0.9600
     21 O21        -8.4795    2.2036   51.3679 O.2     1  ZINC000279452407   -0.9500
     22 S22       -11.1410    0.7332   52.4886 S.3     1  ZINC000279452407    0.2500
     23 C23       -13.5908   -4.1748   55.9769 C.3     1  ZINC000279452407    0.0700
     24 C24       -14.8009   -4.8730   56.6078 C.3     1  ZINC000279452407    0.0400
     25 O25       -14.8693   -4.5340   57.9960 O.3     1  ZINC000279452407   -0.3600
     26 H26       -15.5927   -1.9672   55.7761 H       1  ZINC000279452407    0.0700
     27 H27       -17.0438   -1.0968   56.3282 H       1  ZINC000279452407    0.0600
     28 H28       -15.4674   -0.7705   57.0878 H       1  ZINC000279452407    0.0800
     29 H29       -16.9405   -2.2044   60.8457 H       1  ZINC000279452407    0.1000
     30 H30       -17.1469   -3.7834   60.0217 H       1  ZINC000279452407    0.0700
     31 H31       -14.6725   -1.9652   60.0599 H       1  ZINC000279452407    0.1000
     32 H32       -14.7595   -3.7360   60.3400 H       1  ZINC000279452407    0.1000
     33 H33       -14.0987   -1.2776   57.7393 H       1  ZINC000279452407    0.1200
     34 H34       -12.9681   -2.5547   58.2610 H       1  ZINC000279452407    0.0800
     35 H35       -13.3223   -3.1412   53.8122 H       1  ZINC000279452407    0.4000
     36 H36       -13.6972   -1.5784   52.0534 H       1  ZINC000279452407    0.1000
     37 H37       -13.7820   -0.2849   53.2732 H       1  ZINC000279452407    0.0900
     38 H38       -10.9941   -2.8359   52.8116 H       1  ZINC000279452407    0.1600
     39 H39        -8.6753   -1.8702   52.3961 H       1  ZINC000279452407    0.1600
     40 H40        -8.0309    2.0450   54.0959 H       1  ZINC000279452407    0.4200
     41 H41        -6.5913    1.2335   53.7926 H       1  ZINC000279452407    0.4200
     42 H42       -13.6059   -4.3203   54.8968 H       1  ZINC000279452407    0.0900
     43 H43       -12.6717   -4.5882   56.3923 H       1  ZINC000279452407    0.0900
     44 H44       -15.7121   -4.5448   56.1076 H       1  ZINC000279452407    0.0600
     45 H45       -14.6948   -5.9525   56.5013 H       1  ZINC000279452407    0.1100
@<TRIPOS>BOND
     1     1     2    1
     2     1    26    1
     3     1    27    1
     4     1    28    1
     5     2     3    1
     6     2     7    1
     7     2     4    1
     8     4     5    1
     9     5     6    1
    10     5    29    1
    11     5    30    1
    12     6     7    1
    13     6    31    1
    14     6    32    1
    15     7    25    1
    16     7     8    1
    17     8     9    1
    18     8    33    1
    19     8    34    1
    20     9    10   am
    21     9    23    1
    22    10    11    2
    23    10    12   am
    24    12    13    1
    25    12    35    1
    26    13    14    1
    27    13    36    1
    28    13    37    1
    29    14    22    1
    30    14    15    2
    31    15    16    1
    32    15    38    1
    33    16    17    2
    34    16    39    1
    35    17    18    1
    36    17    22    1
    37    18    19   am
    38    18    20    2
    39    18    21    2
    40    19    40    1
    41    19    41    1
    42    23    24    1
    43    23    42    1
    44    23    43    1
    45    24    25    1
    46    24    44    1
    47    24    45    1
@<TRIPOS>SUBSTRUCTURE
     1 ZINC000279452407        1 TEMP              0 ****  ****    0 ROOT


##########                                Name:    ZINC001120957943
##########                DOCK_Rotatable_Bonds:                   4
##########                         Heavy_Atoms:                  27
##########                    Molecular_Weight:             396.802
##########                DOCK_Rotatable_Bonds:                   4
##########                       Formal_Charge:          -0.0199996
##########                     HBond_Acceptors:                  10
##########                        HBond_Donors:                   0
##########                         Heavy_Atoms:                  27
##########                          Grid_Score:          -29.047802
##########                     Grid_vdw_energy:          -27.994850
##########                      Grid_es_energy:           -1.052951
##########           Internal_energy_repulsive:            6.394456

@<TRIPOS>MOLECULE
ZINC001120957943
 43 46 1 0 0
SMALL
USER_CHARGES


@<TRIPOS>ATOM
      1 C1        -13.0971   -2.0289   54.6142 C.3     1  ZINC001120957943    0.0900
      2 N2        -12.0970   -1.0545   55.0574 N.pl3   1  ZINC001120957943   -0.6000
      3 C3        -11.7426    0.0754   54.1948 C.3     1  ZINC001120957943    0.2200
      4 C4        -10.5493   -0.2918   53.3509 C.2     1  ZINC001120957943    0.1600
      5 N5        -10.2705   -1.4773   52.8724 N.2     1  ZINC001120957943   -0.2500
      6 N6         -9.1741   -1.4270   52.1964 N.2     1  ZINC001120957943   -0.2800
      7 C7         -8.7089   -0.2150   52.2151 C.2     1  ZINC001120957943    0.1700
      8 C8         -7.4558    0.3203   51.5690 C.3     1  ZINC001120957943   -0.0300
      9 C9         -7.1369    1.6818   52.2011 C.3     1  ZINC001120957943   -0.1300
     10 C10        -8.4020    2.5448   52.2098 C.3     1  ZINC001120957943   -0.1500
     11 H11        -8.8432    2.5521   51.2130 H       1  ZINC001120957943    0.1300
     12 C12        -8.0408    3.9745   52.6176 C.3     1  ZINC001120957943    0.4600
     13 F13        -7.4308    3.9603   53.8765 F       1  ZINC001120957943   -0.1700
     14 F14        -7.1584    4.5187   51.6780 F       1  ZINC001120957943   -0.1800
     15 F15        -9.2027    4.7518   52.6711 F       1  ZINC001120957943   -0.1800
     16 C16        -9.4104    1.9682   53.2103 C.3     1  ZINC001120957943    0.1100
     17 N17        -9.5715    0.5395   52.9421 N.pl3   1  ZINC001120957943   -0.4700
     18 C18       -11.4854   -1.2017   56.2937 C.ar    1  ZINC001120957943    0.3700
     19 C19       -11.1805   -2.4879   56.7723 C.ar    1  ZINC001120957943    0.0500
     20 N20       -10.6022   -2.6466   57.9384 N.ar    1  ZINC001120957943   -0.3900
     21 C21       -10.2978   -1.5760   58.6827 C.ar    1  ZINC001120957943    0.0400
     22 C22        -9.6774   -1.7191   59.9352 C.ar    1  ZINC001120957943   -0.0600
     23 C23        -9.3785   -0.6126   60.6714 C.ar    1  ZINC001120957943   -0.0400
     24 Cl24       -8.6120   -0.7952   62.2182 Cl      1  ZINC001120957943   -0.0600
     25 C25        -9.6791    0.6649   60.1996 C.ar    1  ZINC001120957943   -0.0800
     26 C26       -10.2797    0.8406   58.9911 C.ar    1  ZINC001120957943   -0.0800
     27 C27       -10.6033   -0.2778   58.2039 C.ar    1  ZINC001120957943    0.1400
     28 N28       -11.1894   -0.1332   57.0091 N.ar    1  ZINC001120957943   -0.4700
     29 H29       -12.6036   -2.8345   54.0704 H       1  ZINC001120957943    0.0700
     30 H30       -13.6137   -2.4395   55.4817 H       1  ZINC001120957943    0.0800
     31 H31       -13.8182   -1.5378   53.9607 H       1  ZINC001120957943    0.0700
     32 H32       -12.5855    0.3163   53.5470 H       1  ZINC001120957943    0.1200
     33 H33       -11.4992    0.9407   54.8113 H       1  ZINC001120957943    0.1000
     34 H34        -6.6292   -0.3687   51.7426 H       1  ZINC001120957943    0.1100
     35 H35        -7.6167    0.4405   50.4978 H       1  ZINC001120957943    0.1000
     36 H36        -6.7891    1.5358   53.2238 H       1  ZINC001120957943    0.0900
     37 H37        -6.3607    2.1799   51.6200 H       1  ZINC001120957943    0.1000
     38 H38        -9.0421    2.1141   54.2258 H       1  ZINC001120957943    0.1000
     39 H39       -10.3707    2.4702   53.0919 H       1  ZINC001120957943    0.1100
     40 H40       -11.4253   -3.3533   56.1744 H       1  ZINC001120957943    0.1700
     41 H41        -9.4388   -2.7023   60.3129 H       1  ZINC001120957943    0.1500
     42 H42        -9.4322    1.5268   60.8019 H       1  ZINC001120957943    0.1400
     43 H43       -10.5071    1.8358   58.6384 H       1  ZINC001120957943    0.1500
@<TRIPOS>BOND
     1     1     2    1
     2     1    29    1
     3     1    30    1
     4     1    31    1
     5     2     3    1
     6     2    18    1
     7     3     4    1
     8     3    32    1
     9     3    33    1
    10     4    17    1
    11     4     5    2
    12     5     6    1
    13     6     7    2
    14     7    17    1
    15     7     8    1
    16     8     9    1
    17     8    34    1
    18     8    35    1
    19     9    10    1
    20     9    36    1
    21     9    37    1
    22    10    11    1
    23    10    12    1
    24    10    16    1
    25    12    13    1
    26    12    14    1
    27    12    15    1
    28    16    17    1
    29    16    38    1
    30    16    39    1
    31    18    28   ar
    32    18    19   ar
    33    19    20   ar
    34    19    40    1
    35    20    21   ar
    36    21    27   ar
    37    21    22   ar
    38    22    23   ar
    39    22    41    1
    40    23    24    1
    41    23    25   ar
    42    25    26   ar
    43    25    42    1
    44    26    27   ar
    45    26    43    1
    46    27    28   ar
@<TRIPOS>SUBSTRUCTURE
     1 ZINC001120957943        1 TEMP              0 ****  ****    0 ROOT


##########                                Name:    ZINC000373715094
##########                DOCK_Rotatable_Bonds:                   6
##########                         Heavy_Atoms:                  27
##########                    Molecular_Weight:             362.431
##########                DOCK_Rotatable_Bonds:                   6
##########                       Formal_Charge:           0.0299999
##########                     HBond_Acceptors:                   6
##########                        HBond_Donors:                   2
##########                         Heavy_Atoms:                  27
##########                          Grid_Score:          -29.044094
##########                     Grid_vdw_energy:          -27.907742
##########                      Grid_es_energy:           -1.136352
##########           Internal_energy_repulsive:           13.147753

@<TRIPOS>MOLECULE
ZINC000373715094
 49 52 1 0 0
SMALL
USER_CHARGES


@<TRIPOS>ATOM
      1 C1        -11.1287   -0.7848   55.2419 C.3     1  ZINC000373715094    0.0900
      2 N2        -11.4117   -1.8312   56.2274 N.am    1  ZINC000373715094   -0.6100
      3 C3        -11.1021   -3.1292   56.0657 C.2     1  ZINC000373715094    0.5200
      4 O4        -10.5590   -3.5971   55.0874 O.2     1  ZINC000373715094   -0.5200
      5 C5        -11.5293   -3.9214   57.2816 C.3     1  ZINC000373715094   -0.1600
      6 C6        -11.7632   -2.8484   58.3702 C.3     1  ZINC000373715094   -0.1000
      7 H7        -12.6141   -3.1100   58.9992 H       1  ZINC000373715094    0.1100
      8 C8        -10.5044   -2.6419   59.2150 C.3     1  ZINC000373715094    0.1300
      9 N9        -10.7733   -1.6481   60.2572 N.am    1  ZINC000373715094   -0.7300
     10 C10       -10.2837   -0.3979   60.1386 C.2     1  ZINC000373715094    0.5200
     11 O11        -9.6216   -0.0955   59.1684 O.2     1  ZINC000373715094   -0.5200
     12 C12       -10.5589    0.6239   61.2115 C.3     1  ZINC000373715094   -0.0600
     13 C13        -9.7345    0.3051   62.4320 C.2     1  ZINC000373715094    0.1200
     14 N14        -8.7086   -0.4961   62.4775 N.2     1  ZINC000373715094   -0.2300
     15 N15        -8.1954   -0.5464   63.7776 N.pl3   1  ZINC000373715094   -0.5100
     16 C16        -8.9434    0.2688   64.5864 C.ar    1  ZINC000373715094    0.1300
     17 C17        -8.8903    0.5982   65.9382 C.ar    1  ZINC000373715094   -0.1400
     18 C18        -9.8045    1.4676   66.4628 C.ar    1  ZINC000373715094   -0.0700
     19 C19       -10.7916    2.0304   65.6634 C.ar    1  ZINC000373715094   -0.1600
     20 C20       -10.8680    1.7260   64.3350 C.ar    1  ZINC000373715094   -0.0400
     21 C21        -9.9392    0.8437   63.7728 C.ar    1  ZINC000373715094   -0.1600
     22 C22       -12.0640   -1.5958   57.5209 C.3     1  ZINC000373715094    0.1800
     23 H23       -11.6524   -0.7075   58.0000 H       1  ZINC000373715094    0.1000
     24 C24       -13.5506   -1.4417   57.3273 C.ar    1  ZINC000373715094   -0.1000
     25 C25       -14.1405   -1.8551   56.1476 C.ar    1  ZINC000373715094   -0.1000
     26 C26       -15.5041   -1.7137   55.9701 C.ar    1  ZINC000373715094   -0.1200
     27 C27       -16.2778   -1.1591   56.9725 C.ar    1  ZINC000373715094   -0.1100
     28 C28       -15.6880   -0.7466   58.1526 C.ar    1  ZINC000373715094   -0.1200
     29 C29       -14.3251   -0.8919   58.3318 C.ar    1  ZINC000373715094   -0.1100
     30 H30       -10.1407   -0.3651   55.4311 H       1  ZINC000373715094    0.0600
     31 H31       -11.1557   -1.2127   54.2397 H       1  ZINC000373715094    0.0800
     32 H32       -11.8790    0.0018   55.3214 H       1  ZINC000373715094    0.0700
     33 H33       -12.4515   -4.4654   57.0778 H       1  ZINC000373715094    0.1100
     34 H34       -10.7396   -4.6080   57.5863 H       1  ZINC000373715094    0.1100
     35 H35       -10.2190   -3.5863   59.6786 H       1  ZINC000373715094    0.0700
     36 H36        -9.6930   -2.2901   58.5780 H       1  ZINC000373715094    0.0800
     37 H37       -11.3039   -1.8897   61.0324 H       1  ZINC000373715094    0.4000
     38 H38       -10.2960    1.6160   60.8444 H       1  ZINC000373715094    0.1200
     39 H39       -11.6171    0.6014   61.4718 H       1  ZINC000373715094    0.1200
     40 H40        -7.4324   -1.0739   64.0614 H       1  ZINC000373715094    0.4400
     41 H41        -8.1284    0.1671   66.5709 H       1  ZINC000373715094    0.1300
     42 H42        -9.7594    1.7202   67.5119 H       1  ZINC000373715094    0.1300
     43 H43       -11.5054    2.7150   66.0973 H       1  ZINC000373715094    0.1300
     44 H44       -11.6383    2.1678   63.7202 H       1  ZINC000373715094    0.1300
     45 H45       -13.5361   -2.2883   55.3645 H       1  ZINC000373715094    0.1200
     46 H46       -15.9650   -2.0361   55.0480 H       1  ZINC000373715094    0.1200
     47 H47       -17.3431   -1.0480   56.8335 H       1  ZINC000373715094    0.1200
     48 H48       -16.2924   -0.3130   58.9356 H       1  ZINC000373715094    0.1300
     49 H49       -13.8642   -0.5695   59.2538 H       1  ZINC000373715094    0.1300
@<TRIPOS>BOND
     1     1     2    1
     2     1    30    1
     3     1    31    1
     4     1    32    1
     5     2    22    1
     6     2     3   am
     7     3     4    2
     8     3     5    1
     9     5     6    1
    10     5    33    1
    11     5    34    1
    12     6     7    1
    13     6     8    1
    14     6    22    1
    15     8     9    1
    16     8    35    1
    17     8    36    1
    18     9    10   am
    19     9    37    1
    20    10    11    2
    21    10    12    1
    22    12    13    1
    23    12    38    1
    24    12    39    1
    25    13    21    1
    26    13    14    2
    27    14    15    1
    28    15    16    1
    29    15    40    1
    30    16    21   ar
    31    16    17   ar
    32    17    18   ar
    33    17    41    1
    34    18    19   ar
    35    18    42    1
    36    19    20   ar
    37    19    43    1
    38    20    21   ar
    39    20    44    1
    40    22    23    1
    41    22    24    1
    42    24    29   ar
    43    24    25   ar
    44    25    26   ar
    45    25    45    1
    46    26    27   ar
    47    26    46    1
    48    27    28   ar
    49    27    47    1
    50    28    29   ar
    51    28    48    1
    52    29    49    1
@<TRIPOS>SUBSTRUCTURE
     1 ZINC000373715094        1 TEMP              0 ****  ****    0 ROOT


##########                                Name:    ZINC000492313853
##########                DOCK_Rotatable_Bonds:                   8
##########                         Heavy_Atoms:                  30
##########                    Molecular_Weight:             418.422
##########                DOCK_Rotatable_Bonds:                   8
##########                       Formal_Charge:          -0.0100008
##########                     HBond_Acceptors:                  10
##########                        HBond_Donors:                   2
##########                         Heavy_Atoms:                  30
##########                          Grid_Score:          -29.043312
##########                     Grid_vdw_energy:          -29.090975
##########                      Grid_es_energy:            0.047664
##########           Internal_energy_repulsive:           13.025361

@<TRIPOS>MOLECULE
ZINC000492313853
 51 53 1 0 0
SMALL
USER_CHARGES


@<TRIPOS>ATOM
      1 C1        -12.3096    0.4735   62.7420 C.3     1  ZINC000492313853    0.0900
      2 N2        -13.4301   -0.3910   62.3630 N.pl3   1  ZINC000492313853   -0.6200
      3 C3        -14.6096   -0.4823   63.2270 C.3     1  ZINC000492313853    0.1000
      4 C4        -13.3741   -1.1244   61.1834 C.ar    1  ZINC000492313853    0.4100
      5 C5        -12.1682   -1.2391   60.4999 C.ar    1  ZINC000492313853   -0.2400
      6 C6        -12.1266   -1.9725   59.3275 C.ar    1  ZINC000492313853   -0.0100
      7 C7        -13.2968   -2.5684   58.8768 C.ar    1  ZINC000492313853   -0.2300
      8 C8        -13.2984   -3.3769   57.6051 C.3     1  ZINC000492313853    0.2000
      9 N9        -13.4481   -2.4802   56.4563 N.am    1  ZINC000492313853   -0.7300
     10 C10       -12.3566   -2.0270   55.8085 C.2     1  ZINC000492313853    0.7100
     11 O11       -11.2476   -2.3635   56.1766 O.2     1  ZINC000492313853   -0.5600
     12 N12       -12.4943   -1.2006   54.7527 N.am    1  ZINC000492313853   -0.6600
     13 C13       -11.3644   -0.7301   54.0831 C.2     1  ZINC000492313853    0.3300
     14 C14       -10.5150    0.2344   54.5244 C.2     1  ZINC000492313853   -0.2600
     15 C15        -9.5140    0.4046   53.5497 C.2     1  ZINC000492313853    0.1200
     16 C16        -8.3800    1.3592   53.6236 C.ar    1  ZINC000492313853   -0.0100
     17 C17        -8.1597    2.0944   54.7862 C.ar    1  ZINC000492313853   -0.0600
     18 C18        -7.1032    2.9806   54.8497 C.ar    1  ZINC000492313853   -0.1200
     19 C19        -6.2642    3.1393   53.7618 C.ar    1  ZINC000492313853   -0.0700
     20 C20        -6.4783    2.4117   52.6047 C.ar    1  ZINC000492313853   -0.1900
     21 C21        -5.5597    2.5896   51.4235 C.3     1  ZINC000492313853    0.5100
     22 F22        -4.4594    1.7356   51.5556 F       1  ZINC000492313853   -0.1800
     23 F23        -6.2495    2.2824   50.2458 F       1  ZINC000492313853   -0.1800
     24 F24        -5.1171    3.9158   51.3724 F       1  ZINC000492313853   -0.1800
     25 C25        -7.5284    1.5192   52.5323 C.ar    1  ZINC000492313853   -0.0400
     26 N26        -9.7581   -0.4295   52.5615 N.2     1  ZINC000492313853   -0.2700
     27 N27       -10.9123   -1.1580   52.8754 N.pl3   1  ZINC000492313853   -0.3900
     28 C28       -11.5297   -2.1935   52.0429 C.3     1  ZINC000492313853    0.1000
     29 C29       -14.4589   -2.4133   59.6059 C.ar    1  ZINC000492313853    0.1700
     30 N30       -14.4681   -1.7122   60.7237 N.ar    1  ZINC000492313853   -0.5400
     31 H31       -11.5996   -0.0946   63.3430 H       1  ZINC000492313853    0.0600
     32 H32       -11.8134    0.8400   61.8433 H       1  ZINC000492313853    0.0700
     33 H33       -12.6822    1.3181   63.3215 H       1  ZINC000492313853    0.0700
     34 H34       -14.4723    0.1582   64.0983 H       1  ZINC000492313853    0.0700
     35 H35       -15.4913   -0.1589   62.6738 H       1  ZINC000492313853    0.0600
     36 H36       -14.7429   -1.5142   63.5520 H       1  ZINC000492313853    0.0600
     37 H37       -11.2766   -0.7620   60.8788 H       1  ZINC000492313853    0.1300
     38 H38       -11.2047   -2.0786   58.7750 H       1  ZINC000492313853    0.1400
     39 H39       -12.3584   -3.9223   57.5202 H       1  ZINC000492313853    0.0800
     40 H40       -14.1279   -4.0837   57.6249 H       1  ZINC000492313853    0.0800
     41 H41       -14.3328   -2.2126   56.1620 H       1  ZINC000492313853    0.4000
     42 H42       -13.3790   -0.9332   54.4583 H       1  ZINC000492313853    0.4100
     43 H43       -10.5943    0.7745   55.4562 H       1  ZINC000492313853    0.1800
     44 H44        -8.8145    1.9715   55.6362 H       1  ZINC000492313853    0.1400
     45 H45        -6.9316    3.5512   55.7504 H       1  ZINC000492313853    0.1400
     46 H46        -5.4389    3.8338   53.8155 H       1  ZINC000492313853    0.1400
     47 H47        -7.6947    0.9517   51.6286 H       1  ZINC000492313853    0.1400
     48 H48       -11.1059   -3.1649   52.2975 H       1  ZINC000492313853    0.0800
     49 H49       -12.6051   -2.2086   52.2199 H       1  ZINC000492313853    0.0800
     50 H50       -11.3373   -1.9773   50.9920 H       1  ZINC000492313853    0.1000
     51 H51       -15.3715   -2.8752   59.2590 H       1  ZINC000492313853    0.1600
@<TRIPOS>BOND
     1     1     2    1
     2     1    31    1
     3     1    32    1
     4     1    33    1
     5     2     3    1
     6     2     4    1
     7     3    34    1
     8     3    35    1
     9     3    36    1
    10     4    30   ar
    11     4     5   ar
    12     5     6   ar
    13     5    37    1
    14     6     7   ar
    15     6    38    1
    16     7     8    1
    17     7    29   ar
    18     8     9    1
    19     8    39    1
    20     8    40    1
    21     9    10   am
    22     9    41    1
    23    10    11    2
    24    10    12   am
    25    12    13    1
    26    12    42    1
    27    13    27    1
    28    13    14    2
    29    14    15    1
    30    14    43    1
    31    15    16    1
    32    15    26    2
    33    16    25   ar
    34    16    17   ar
    35    17    18   ar
    36    17    44    1
    37    18    19   ar
    38    18    45    1
    39    19    20   ar
    40    19    46    1
    41    20    21    1
    42    20    25   ar
    43    21    22    1
    44    21    23    1
    45    21    24    1
    46    25    47    1
    47    26    27    1
    48    27    28    1
    49    28    48    1
    50    28    49    1
    51    28    50    1
    52    29    30   ar
    53    29    51    1
@<TRIPOS>SUBSTRUCTURE
     1 ZINC000492313853        1 TEMP              0 ****  ****    0 ROOT


##########                                Name:    ZINC000534799364
##########                DOCK_Rotatable_Bonds:                   4
##########                         Heavy_Atoms:                  29
##########                    Molecular_Weight:             391.491
##########                DOCK_Rotatable_Bonds:                   4
##########                       Formal_Charge:           0.0199998
##########                     HBond_Acceptors:                   6
##########                        HBond_Donors:                   0
##########                         Heavy_Atoms:                  29
##########                          Grid_Score:          -29.024855
##########                     Grid_vdw_energy:          -27.094505
##########                      Grid_es_energy:           -1.930350
##########           Internal_energy_repulsive:           14.360596

@<TRIPOS>MOLECULE
ZINC000534799364
 55 59 1 0 0
SMALL
USER_CHARGES


@<TRIPOS>ATOM
      1 C1        -14.3777   -4.0287   57.2029 C.3     1  ZINC000534799364   -0.1100
      2 C2        -15.0680   -3.4229   58.3978 C.ar    1  ZINC000534799364   -0.0200
      3 C3        -16.4191   -3.6326   58.6184 C.ar    1  ZINC000534799364   -0.1700
      4 C4        -17.0194   -3.0611   59.7253 C.ar    1  ZINC000534799364    0.1000
      5 N5        -16.3239   -2.3232   60.5680 N.ar    1  ZINC000534799364   -0.4800
      6 C6        -15.0365   -2.0984   60.3956 C.ar    1  ZINC000534799364    0.0800
      7 C7        -14.3616   -2.6431   59.3108 C.ar    1  ZINC000534799364    0.0300
      8 N8        -12.9970   -2.4031   59.1316 N.3     1  ZINC000534799364   -0.5000
      9 C9        -12.3064   -2.2989   60.4246 C.3     1  ZINC000534799364    0.0600
     10 C10       -10.8059   -2.1160   60.1853 C.3     1  ZINC000534799364    0.0600
     11 N11       -10.5851   -0.9101   59.3750 N.3     1  ZINC000534799364   -0.5300
     12 C12        -9.1503   -0.6577   59.1867 C.3     1  ZINC000534799364    0.1400
     13 C13        -8.9511    0.7390   58.6571 C.2     1  ZINC000534799364    0.1100
     14 N14        -8.1382    1.0840   57.6924 N.2     1  ZINC000534799364   -0.2800
     15 N15        -8.2470    2.4666   57.5014 N.pl3   1  ZINC000534799364   -0.3100
     16 C16        -7.5401    3.2278   56.5592 C.ar    1  ZINC000534799364    0.1500
     17 C17        -6.2836    2.8169   56.1353 C.ar    1  ZINC000534799364   -0.1000
     18 C18        -5.5891    3.5677   55.2074 C.ar    1  ZINC000534799364   -0.1300
     19 C19        -6.1453    4.7299   54.6997 C.ar    1  ZINC000534799364    0.1000
     20 F20        -5.4645    5.4630   53.7918 F       1  ZINC000534799364   -0.1300
     21 C21        -7.3986    5.1414   55.1213 C.ar    1  ZINC000534799364   -0.1300
     22 C22        -8.0986    4.3901   56.0448 C.ar    1  ZINC000534799364   -0.0800
     23 C23        -9.1560    2.9392   58.3879 C.2     1  ZINC000534799364    0.0500
     24 C24        -9.6101    1.8908   59.1099 C.2     1  ZINC000534799364   -0.2200
     25 C25       -10.6342    2.3568   60.1225 C.3     1  ZINC000534799364   -0.0400
     26 C26       -10.4335    3.8848   60.2204 C.3     1  ZINC000534799364   -0.1200
     27 C27        -9.8295    4.2175   58.8374 C.3     1  ZINC000534799364   -0.0500
     28 C28       -11.2757   -1.0142   58.0820 C.3     1  ZINC000534799364    0.0600
     29 C29       -12.7763   -1.1971   58.3214 C.3     1  ZINC000534799364    0.0600
     30 H30       -13.9160   -4.9733   57.4904 H       1  ZINC000534799364    0.0800
     31 H31       -15.1076   -4.2065   56.4131 H       1  ZINC000534799364    0.0600
     32 H32       -13.6103   -3.3444   56.8412 H       1  ZINC000534799364    0.0800
     33 H33       -16.9973   -4.2351   57.9336 H       1  ZINC000534799364    0.1400
     34 H34       -18.0728   -3.2211   59.9017 H       1  ZINC000534799364    0.1600
     35 H35       -14.5003   -1.4883   61.1074 H       1  ZINC000534799364    0.1500
     36 H36       -12.6939   -1.4421   60.9759 H       1  ZINC000534799364    0.0500
     37 H37       -12.4745   -3.2088   61.0010 H       1  ZINC000534799364    0.0800
     38 H38       -10.2953   -2.0096   61.1424 H       1  ZINC000534799364    0.0900
     39 H39       -10.4131   -2.9854   59.6580 H       1  ZINC000534799364    0.0500
     40 H40        -8.6348   -0.7612   60.1416 H       1  ZINC000534799364    0.1000
     41 H41        -8.7452   -1.3773   58.4753 H       1  ZINC000534799364    0.0500
     42 H42        -5.8494    1.9107   56.5314 H       1  ZINC000534799364    0.1400
     43 H43        -4.6114    3.2486   54.8778 H       1  ZINC000534799364    0.1500
     44 H44        -7.8306    6.0483   54.7246 H       1  ZINC000534799364    0.1500
     45 H45        -9.0761    4.7111   56.3732 H       1  ZINC000534799364    0.1400
     46 H46       -11.6417    2.1286   59.7746 H       1  ZINC000534799364    0.0800
     47 H47       -10.4513    1.8879   61.0893 H       1  ZINC000534799364    0.0700
     48 H48       -11.3866    4.3946   60.3602 H       1  ZINC000534799364    0.0800
     49 H49        -9.7382    4.1355   61.0216 H       1  ZINC000534799364    0.0800
     50 H50        -9.0955    5.0183   58.9272 H       1  ZINC000534799364    0.0800
     51 H51       -10.6166    4.5007   58.1385 H       1  ZINC000534799364    0.0900
     52 H52       -11.1076   -0.1044   57.5057 H       1  ZINC000534799364    0.0900
     53 H53       -10.8883   -1.8710   57.5308 H       1  ZINC000534799364    0.0500
     54 H54       -13.2869   -1.3035   57.3643 H       1  ZINC000534799364    0.0800
     55 H55       -13.1690   -0.3278   58.8488 H       1  ZINC000534799364    0.0500
@<TRIPOS>BOND
     1     1     2    1
     2     1    30    1
     3     1    31    1
     4     1    32    1
     5     2     7   ar
     6     2     3   ar
     7     3     4   ar
     8     3    33    1
     9     4     5   ar
    10     4    34    1
    11     5     6   ar
    12     6     7   ar
    13     6    35    1
    14     7     8    1
    15     8    29    1
    16     8     9    1
    17     9    10    1
    18     9    36    1
    19     9    37    1
    20    10    11    1
    21    10    38    1
    22    10    39    1
    23    11    12    1
    24    11    28    1
    25    12    13    1
    26    12    40    1
    27    12    41    1
    28    13    24    1
    29    13    14    2
    30    14    15    1
    31    15    16    1
    32    15    23    1
    33    16    22   ar
    34    16    17   ar
    35    17    18   ar
    36    17    42    1
    37    18    19   ar
    38    18    43    1
    39    19    20    1
    40    19    21   ar
    41    21    22   ar
    42    21    44    1
    43    22    45    1
    44    23    27    1
    45    23    24    2
    46    24    25    1
    47    25    26    1
    48    25    46    1
    49    25    47    1
    50    26    27    1
    51    26    48    1
    52    26    49    1
    53    27    50    1
    54    27    51    1
    55    28    29    1
    56    28    52    1
    57    28    53    1
    58    29    54    1
    59    29    55    1
@<TRIPOS>SUBSTRUCTURE
     1 ZINC000534799364        1 TEMP              0 ****  ****    0 ROOT


##########                                Name:    ZINC000919225759
##########                DOCK_Rotatable_Bonds:                   4
##########                         Heavy_Atoms:                  27
##########                    Molecular_Weight:             375.295
##########                DOCK_Rotatable_Bonds:                   4
##########                       Formal_Charge:                0.04
##########                     HBond_Acceptors:                  11
##########                        HBond_Donors:                   0
##########                         Heavy_Atoms:                  27
##########                          Grid_Score:          -29.008778
##########                     Grid_vdw_energy:          -28.576382
##########                      Grid_es_energy:           -0.432395
##########           Internal_energy_repulsive:            6.797736

@<TRIPOS>MOLECULE
ZINC000919225759
 40 41 1 0 0
SMALL
USER_CHARGES


@<TRIPOS>ATOM
      1 C1         -4.4158    5.2757   51.3404 C.3     1  ZINC000919225759   -0.1500
      2 C2         -5.2170    4.0321   51.6281 C.ar    1  ZINC000919225759    0.0900
      3 C3         -4.7234    2.7801   51.2563 C.ar    1  ZINC000919225759   -0.1200
      4 C4         -3.4148    2.6696   50.5798 C.2     1  ZINC000919225759    0.5200
      5 O5         -3.3609    2.3445   49.4108 O.2     1  ZINC000919225759   -0.4700
      6 O6         -2.2812    2.9295   51.2597 O.3     1  ZINC000919225759   -0.3400
      7 C7         -1.0364    2.8643   50.5150 C.3     1  ZINC000919225759    0.1400
      8 H8         -1.0751    2.0297   49.8149 H       1  ZINC000919225759    0.1100
      9 C9         -0.8354    4.1693   49.7421 C.3     1  ZINC000919225759   -0.1700
     10 C10         0.1112    2.6649   51.4713 C.ar    1  ZINC000919225759   -0.1000
     11 C11         0.1223    3.3264   52.6848 C.ar    1  ZINC000919225759   -0.0400
     12 C12         1.1752    3.1435   53.5621 C.ar    1  ZINC000919225759   -0.1100
     13 C13         2.2162    2.2989   53.2258 C.ar    1  ZINC000919225759   -0.0500
     14 C14         2.2045    1.6364   52.0123 C.ar    1  ZINC000919225759   -0.0400
     15 N15         3.3197    0.7323   51.6520 N.pl3   1  ZINC000919225759    0.0300
     16 O16         4.2475    0.5718   52.4245 O.2     1  ZINC000919225759   -0.1500
     17 O17         3.3094    0.1487   50.5829 O.2     1  ZINC000919225759   -0.1500
     18 C18         1.1500    1.8160   51.1371 C.ar    1  ZINC000919225759   -0.0400
     19 C19        -5.4721    1.6329   51.5272 C.ar    1  ZINC000919225759    0.0500
     20 C20        -6.6929    1.7434   52.1595 C.ar    1  ZINC000919225759   -0.0600
     21 N21        -7.4877    0.5284   52.4479 N.pl3   1  ZINC000919225759    0.0300
     22 O22        -7.0635   -0.5673   52.1268 O.2     1  ZINC000919225759   -0.1300
     23 O23        -8.5659    0.6243   53.0061 O.2     1  ZINC000919225759   -0.1300
     24 C24        -7.1762    2.9874   52.5253 C.ar    1  ZINC000919225759    0.0400
     25 C25        -6.4372    4.1276   52.2647 C.ar    1  ZINC000919225759   -0.0500
     26 N26        -6.9619    5.4540   52.6601 N.pl3   1  ZINC000919225759    0.0200
     27 O27        -8.1522    5.6924   52.5608 O.2     1  ZINC000919225759   -0.1300
     28 O28        -6.2034    6.3070   53.0849 O.2     1  ZINC000919225759   -0.1200
     29 H29        -3.6754    5.4209   52.1271 H       1  ZINC000919225759    0.1200
     30 H30        -3.9101    5.1681   50.3808 H       1  ZINC000919225759    0.1200
     31 H31        -5.0825    6.1372   51.3052 H       1  ZINC000919225759    0.0900
     32 H32        -0.7966    5.0038   50.4422 H       1  ZINC000919225759    0.0700
     33 H33         0.0991    4.1204   49.1831 H       1  ZINC000919225759    0.0900
     34 H34        -1.6654    4.3136   49.0505 H       1  ZINC000919225759    0.0700
     35 H35        -0.6911    3.9864   52.9475 H       1  ZINC000919225759    0.1500
     36 H36         1.1842    3.6609   54.5101 H       1  ZINC000919225759    0.1500
     37 H37         3.0389    2.1566   53.9109 H       1  ZINC000919225759    0.1600
     38 H38         1.1408    1.2985   50.1891 H       1  ZINC000919225759    0.1600
     39 H39        -5.0963    0.6614   51.2419 H       1  ZINC000919225759    0.1900
     40 H40        -8.1329    3.0682   53.0199 H       1  ZINC000919225759    0.1900
@<TRIPOS>BOND
     1     1     2    1
     2     1    29    1
     3     1    30    1
     4     1    31    1
     5     2    25   ar
     6     2     3   ar
     7     3     4    1
     8     3    19   ar
     9     4     5    2
    10     4     6    1
    11     6     7    1
    12     7     8    1
    13     7     9    1
    14     7    10    1
    15     9    32    1
    16     9    33    1
    17     9    34    1
    18    10    18   ar
    19    10    11   ar
    20    11    12   ar
    21    11    35    1
    22    12    13   ar
    23    12    36    1
    24    13    14   ar
    25    13    37    1
    26    14    15    1
    27    14    18   ar
    28    15    16    2
    29    15    17    2
    30    18    38    1
    31    19    20   ar
    32    19    39    1
    33    20    21    1
    34    20    24   ar
    35    21    22    2
    36    21    23    2
    37    24    25   ar
    38    24    40    1
    39    25    26    1
    40    26    27    2
    41    26    28    2
@<TRIPOS>SUBSTRUCTURE
     1 ZINC000919225759        1 TEMP              0 ****  ****    0 ROOT


##########                                Name:    ZINC001085711660
##########                DOCK_Rotatable_Bonds:                   8
##########                         Heavy_Atoms:                  25
##########                    Molecular_Weight:             347.414
##########                DOCK_Rotatable_Bonds:                   8
##########                       Formal_Charge:         -0.00999993
##########                     HBond_Acceptors:                   7
##########                        HBond_Donors:                   0
##########                         Heavy_Atoms:                  25
##########                          Grid_Score:          -29.006117
##########                     Grid_vdw_energy:          -27.889393
##########                      Grid_es_energy:           -1.116725
##########           Internal_energy_repulsive:           18.734825

@<TRIPOS>MOLECULE
ZINC001085711660
 50 52 1 0 0
SMALL
USER_CHARGES


@<TRIPOS>ATOM
      1 C1        -15.3962   -4.4534   57.9708 C.3     1  ZINC001085711660    0.0300
      2 O2        -14.3964   -5.3125   57.4191 O.3     1  ZINC001085711660   -0.3800
      3 C3        -14.3567   -5.3157   55.9906 C.3     1  ZINC001085711660    0.1400
      4 C4        -14.0429   -3.9281   55.4936 C.2     1  ZINC001085711660    0.0100
      5 C5        -14.9531   -2.9772   55.1880 C.2     1  ZINC001085711660   -0.1900
      6 C6        -14.2405   -1.8430   54.7680 C.2     1  ZINC001085711660   -0.1200
      7 C7        -12.9151   -2.1635   54.8395 C.2     1  ZINC001085711660   -0.0700
      8 C8        -11.7955   -1.2811   54.4953 C.2     1  ZINC001085711660    0.6000
      9 O9        -11.2203   -1.4147   53.4311 O.2     1  ZINC001085711660   -0.5200
     10 N10       -11.4034   -0.3223   55.3576 N.am    1  ZINC001085711660   -0.6000
     11 C11       -10.2849    0.5592   55.0137 C.3     1  ZINC001085711660    0.0700
     12 C12       -12.0957   -0.1616   56.6387 C.3     1  ZINC001085711660    0.1300
     13 C13       -11.6273   -1.2460   57.6110 C.3     1  ZINC001085711660    0.0000
     14 H14       -10.8830   -1.9114   57.1734 H       1  ZINC001085711660    0.1000
     15 C15       -12.7803   -1.9880   58.3013 C.3     1  ZINC001085711660   -0.1400
     16 C16       -11.8590   -1.9237   59.5275 C.3     1  ZINC001085711660    0.0100
     17 N17       -11.2411   -0.7217   58.9343 N.3     1  ZINC001085711660   -0.4500
     18 C18        -9.7821   -0.7412   59.1046 C.3     1  ZINC001085711660    0.1500
     19 H19        -9.3607   -1.5690   58.5343 H       1  ZINC001085711660    0.1000
     20 C20        -9.4440   -0.9183   60.5863 C.3     1  ZINC001085711660   -0.1900
     21 C21        -9.2011    0.5578   58.6086 C.2     1  ZINC001085711660    0.2000
     22 N22        -8.2164    0.6748   57.7638 N.2     1  ZINC001085711660   -0.4700
     23 C23        -7.9766    1.9822   57.5597 C.2     1  ZINC001085711660   -0.0400
     24 C24        -8.8481    2.6783   58.3082 C.2     1  ZINC001085711660   -0.0500
     25 C25        -8.9518    4.1791   58.3984 C.3     1  ZINC001085711660   -0.0700
     26 O26        -9.6158    1.7823   58.9593 O.3     1  ZINC001085711660   -0.2000
     27 O27       -12.8160   -3.4323   55.2873 O.3     1  ZINC001085711660   -0.1500
     28 H28       -15.2103   -3.4279   57.6519 H       1  ZINC001085711660    0.0500
     29 H29       -16.3795   -4.7696   57.6223 H       1  ZINC001085711660    0.0500
     30 H30       -15.3617   -4.5076   59.0589 H       1  ZINC001085711660    0.0900
     31 H31       -13.5855   -6.0066   55.6501 H       1  ZINC001085711660    0.0900
     32 H32       -15.3246   -5.6309   55.6009 H       1  ZINC001085711660    0.0700
     33 H33       -16.0269   -3.0719   55.2545 H       1  ZINC001085711660    0.1600
     34 H34       -14.6594   -0.8998   54.4499 H       1  ZINC001085711660    0.1600
     35 H35       -10.6471    1.3823   54.3977 H       1  ZINC001085711660    0.0600
     36 H36        -9.8415    0.9565   55.9267 H       1  ZINC001085711660    0.0900
     37 H37        -9.5341   -0.0053   54.4609 H       1  ZINC001085711660    0.0800
     38 H38       -11.8692    0.8207   57.0533 H       1  ZINC001085711660    0.0900
     39 H39       -13.1710   -0.2518   56.4844 H       1  ZINC001085711660    0.0900
     40 H40       -13.6939   -1.4014   58.3982 H       1  ZINC001085711660    0.1000
     41 H41       -12.9517   -2.9962   57.9241 H       1  ZINC001085711660    0.0800
     42 H42       -12.3891   -1.7253   60.4590 H       1  ZINC001085711660    0.0900
     43 H43       -11.1760   -2.7699   59.6023 H       1  ZINC001085711660    0.0800
     44 H44        -9.9554   -0.1528   61.1697 H       1  ZINC001085711660    0.0800
     45 H45        -9.7682   -1.9048   60.9176 H       1  ZINC001085711660    0.0800
     46 H46        -8.3672   -0.8236   60.7270 H       1  ZINC001085711660    0.0700
     47 H47        -7.2196    2.3976   56.9110 H       1  ZINC001085711660    0.1800
     48 H48        -9.6458    4.5415   57.6401 H       1  ZINC001085711660    0.0800
     49 H49        -9.3150    4.4595   59.3871 H       1  ZINC001085711660    0.0800
     50 H50        -7.9695    4.6216   58.2332 H       1  ZINC001085711660    0.0900
@<TRIPOS>BOND
     1     1     2    1
     2     1    28    1
     3     1    29    1
     4     1    30    1
     5     2     3    1
     6     3     4    1
     7     3    31    1
     8     3    32    1
     9     4    27    1
    10     4     5    2
    11     5     6    1
    12     5    33    1
    13     6     7    2
    14     6    34    1
    15     7     8    1
    16     7    27    1
    17     8     9    2
    18     8    10   am
    19    10    11    1
    20    10    12    1
    21    11    35    1
    22    11    36    1
    23    11    37    1
    24    12    13    1
    25    12    38    1
    26    12    39    1
    27    13    14    1
    28    13    17    1
    29    13    15    1
    30    15    16    1
    31    15    40    1
    32    15    41    1
    33    16    17    1
    34    16    42    1
    35    16    43    1
    36    17    18    1
    37    18    19    1
    38    18    20    1
    39    18    21    1
    40    20    44    1
    41    20    45    1
    42    20    46    1
    43    21    26    1
    44    21    22    2
    45    22    23    1
    46    23    24    2
    47    23    47    1
    48    24    25    1
    49    24    26    1
    50    25    48    1
    51    25    49    1
    52    25    50    1
@<TRIPOS>SUBSTRUCTURE
     1 ZINC001085711660        1 TEMP              0 ****  ****    0 ROOT


##########                                Name:    ZINC001053433946
##########                DOCK_Rotatable_Bonds:                   6
##########                         Heavy_Atoms:                  24
##########                    Molecular_Weight:             337.419
##########                DOCK_Rotatable_Bonds:                   6
##########                       Formal_Charge:               -0.02
##########                     HBond_Acceptors:                   7
##########                        HBond_Donors:                   2
##########                         Heavy_Atoms:                  24
##########                          Grid_Score:          -29.006006
##########                     Grid_vdw_energy:          -28.860733
##########                      Grid_es_energy:           -0.145273
##########           Internal_energy_repulsive:           13.097723

@<TRIPOS>MOLECULE
ZINC001053433946
 51 54 1 0 0
SMALL
USER_CHARGES


@<TRIPOS>ATOM
      1 N1        -14.4606   -2.7058   56.1526 N.am    1  ZINC001053433946   -0.8300
      2 C2        -13.7375   -3.0680   57.2307 C.2     1  ZINC001053433946    0.5600
      3 O3        -14.0873   -2.7227   58.3395 O.2     1  ZINC001053433946   -0.5500
      4 C4        -12.4942   -3.9020   57.0586 C.3     1  ZINC001053433946   -0.1600
      5 H5        -12.6620   -4.9554   56.8347 H       1  ZINC001053433946    0.1400
      6 C6        -11.2808   -3.5475   57.9205 C.3     1  ZINC001053433946   -0.1300
      7 C7        -11.2753   -3.2302   56.4230 C.3     1  ZINC001053433946   -0.1700
      8 H8        -10.6410   -3.8417   55.7813 H       1  ZINC001053433946    0.1400
      9 C9        -11.4091   -1.7850   56.0175 C.2     1  ZINC001053433946    0.5400
     10 O10       -11.2023   -0.9063   56.8274 O.2     1  ZINC001053433946   -0.5200
     11 N11       -11.7586   -1.4690   54.7547 N.am    1  ZINC001053433946   -0.6100
     12 C12       -12.0148   -2.5161   53.7535 C.3     1  ZINC001053433946    0.0700
     13 C13       -11.1697   -2.2242   52.5091 C.3     1  ZINC001053433946    0.0500
     14 O14       -11.4324   -0.8912   52.0597 O.3     1  ZINC001053433946   -0.3400
     15 C15       -11.1294    0.1147   53.0224 C.3     1  ZINC001053433946    0.0800
     16 C16        -9.6257    0.3487   53.2200 C.3     1  ZINC001053433946   -0.0100
     17 N17        -9.7515    1.3784   52.1637 N.3     1  ZINC001053433946   -0.4700
     18 C18        -8.9978    2.5890   52.5162 C.3     1  ZINC001053433946    0.0200
     19 C19        -8.0643    2.9625   51.3629 C.3     1  ZINC001053433946   -0.1200
     20 H20        -8.6559    3.2315   50.4880 H       1  ZINC001053433946    0.0800
     21 C21        -7.1910    4.1514   51.7757 C.3     1  ZINC001053433946   -0.1200
     22 C22        -6.2082    4.4661   50.6437 C.3     1  ZINC001053433946   -0.1600
     23 C23        -5.3798    3.2162   50.3354 C.3     1  ZINC001053433946    0.0600
     24 O24        -6.2543    2.1403   49.9888 O.3     1  ZINC001053433946   -0.3800
     25 C25        -7.1652    1.7701   51.0257 C.3     1  ZINC001053433946    0.0700
     26 C26       -11.1915    1.5432   52.4657 C.3     1  ZINC001053433946    0.0200
     27 C27       -11.9020   -0.0640   54.3348 C.3     1  ZINC001053433946    0.1000
     28 H28       -15.2602   -2.1679   56.2634 H       1  ZINC001053433946    0.4000
     29 H29       -14.1792   -2.9795   55.2656 H       1  ZINC001053433946    0.4000
     30 H30       -11.3818   -2.7111   58.6121 H       1  ZINC001053433946    0.1100
     31 H31       -10.6501   -4.3678   58.2633 H       1  ZINC001053433946    0.1200
     32 H32       -11.7394   -3.4883   54.1625 H       1  ZINC001053433946    0.1000
     33 H33       -13.0715   -2.5155   53.4862 H       1  ZINC001053433946    0.0800
     34 H34       -10.1127   -2.3232   52.7559 H       1  ZINC001053433946    0.0600
     35 H35       -11.4272   -2.9313   51.7205 H       1  ZINC001053433946    0.1100
     36 H36        -9.3685    0.7526   54.1991 H       1  ZINC001053433946    0.0800
     37 H37        -9.0071   -0.5018   52.9331 H       1  ZINC001053433946    0.0900
     38 H38        -9.6924    3.4085   52.7013 H       1  ZINC001053433946    0.0500
     39 H39        -8.4091    2.4018   53.4142 H       1  ZINC001053433946    0.0800
     40 H40        -7.8224    5.0201   51.9624 H       1  ZINC001053433946    0.0700
     41 H41        -6.6371    3.9003   52.6802 H       1  ZINC001053433946    0.0700
     42 H42        -6.7615    4.7652   49.7535 H       1  ZINC001053433946    0.0700
     43 H43        -5.5458    5.2755   50.9510 H       1  ZINC001053433946    0.0700
     44 H44        -4.7082    3.4218   49.5019 H       1  ZINC001053433946    0.0900
     45 H45        -4.7957    2.9413   51.2137 H       1  ZINC001053433946    0.0500
     46 H46        -6.6055    1.4763   51.9137 H       1  ZINC001053433946    0.0500
     47 H47        -7.7786    0.9342   50.6894 H       1  ZINC001053433946    0.1000
     48 H48       -11.8180    1.6427   51.5793 H       1  ZINC001053433946    0.1000
     49 H49       -11.3982    2.3009   53.2216 H       1  ZINC001053433946    0.0900
     50 H50       -12.9540    0.1745   54.1783 H       1  ZINC001053433946    0.0800
     51 H51       -11.4851    0.5912   55.0997 H       1  ZINC001053433946    0.1000
@<TRIPOS>BOND
     1     1     2   am
     2     1    28    1
     3     1    29    1
     4     2     3    2
     5     2     4    1
     6     4     5    1
     7     4     7    1
     8     4     6    1
     9     6     7    1
    10     6    30    1
    11     6    31    1
    12     7     8    1
    13     7     9    1
    14     9    10    2
    15     9    11   am
    16    11    27    1
    17    11    12    1
    18    12    13    1
    19    12    32    1
    20    12    33    1
    21    13    14    1
    22    13    34    1
    23    13    35    1
    24    14    15    1
    25    15    26    1
    26    15    16    1
    27    15    27    1
    28    16    17    1
    29    16    36    1
    30    16    37    1
    31    17    18    1
    32    17    26    1
    33    18    19    1
    34    18    38    1
    35    18    39    1
    36    19    20    1
    37    19    25    1
    38    19    21    1
    39    21    22    1
    40    21    40    1
    41    21    41    1
    42    22    23    1
    43    22    42    1
    44    22    43    1
    45    23    24    1
    46    23    44    1
    47    23    45    1
    48    24    25    1
    49    25    46    1
    50    25    47    1
    51    26    48    1
    52    26    49    1
    53    27    50    1
    54    27    51    1
@<TRIPOS>SUBSTRUCTURE
     1 ZINC001053433946        1 TEMP              0 ****  ****    0 ROOT


##########                                Name:    ZINC001085817863
##########                DOCK_Rotatable_Bonds:                   7
##########                         Heavy_Atoms:                  24
##########                    Molecular_Weight:             326.442
##########                DOCK_Rotatable_Bonds:                   7
##########                       Formal_Charge:           0.0299998
##########                     HBond_Acceptors:                   5
##########                        HBond_Donors:                   0
##########                         Heavy_Atoms:                  24
##########                          Grid_Score:          -28.992964
##########                     Grid_vdw_energy:          -27.619949
##########                      Grid_es_energy:           -1.373014
##########           Internal_energy_repulsive:           13.302614

@<TRIPOS>MOLECULE
ZINC001085817863
 50 52 1 0 0
SMALL
USER_CHARGES


@<TRIPOS>ATOM
      1 C1        -13.3418    1.4315   61.3648 C.3     1  ZINC001085817863   -0.1400
      2 C2        -12.8447    0.2556   62.2079 C.3     1  ZINC001085817863   -0.0700
      3 C3        -12.0956   -0.7120   61.3284 C.2     1  ZINC001085817863    0.1100
      4 C4        -12.6225   -1.8250   60.7331 C.2     1  ZINC001085817863   -0.2400
      5 C5        -14.0120   -2.3039   60.8250 C.2     1  ZINC001085817863    0.6000
      6 O6        -14.4140   -2.8102   61.8551 O.2     1  ZINC001085817863   -0.5300
      7 N7        -14.8385   -2.1809   59.7673 N.am    1  ZINC001085817863   -0.6100
      8 C8        -16.2208   -2.6573   59.8587 C.3     1  ZINC001085817863    0.0800
      9 C9        -14.3544   -1.5709   58.5265 C.3     1  ZINC001085817863    0.1300
     10 C10       -13.9731   -2.6700   57.5328 C.3     1  ZINC001085817863    0.0100
     11 H11       -13.2249   -3.3561   57.9299 H       1  ZINC001085817863    0.0800
     12 C12       -15.1841   -3.3791   56.9106 C.3     1  ZINC001085817863   -0.1400
     13 C13       -14.3317   -3.3435   55.6344 C.3     1  ZINC001085817863    0.0000
     14 N14       -13.6468   -2.1591   56.1883 N.3     1  ZINC001085817863   -0.4400
     15 C15       -12.2010   -2.2212   55.9363 C.3     1  ZINC001085817863    0.0700
     16 C16       -11.9336   -1.9568   54.4770 C.ar    1  ZINC001085817863   -0.1300
     17 C17       -11.9457   -0.6609   53.9847 C.ar    1  ZINC001085817863   -0.0700
     18 C18       -11.6938   -0.4652   52.6352 C.ar    1  ZINC001085817863   -0.1700
     19 C19       -11.4408   -1.5604   51.8316 C.ar    1  ZINC001085817863    0.1000
     20 N20       -11.4373   -2.7797   52.3344 N.ar    1  ZINC001085817863   -0.4800
     21 C21       -11.6674   -3.0029   53.6135 C.ar    1  ZINC001085817863    0.1200
     22 C22       -11.5241   -2.4448   59.9842 C.2     1  ZINC001085817863   -0.1900
     23 C23       -10.4441   -1.6690   60.1853 C.2     1  ZINC001085817863   -0.0200
     24 N24       -10.7951   -0.6246   60.9902 N.pl3   1  ZINC001085817863   -0.4400
     25 C25        -9.8847    0.4348   61.4318 C.3     1  ZINC001085817863    0.0600
     26 H26       -13.8837    2.1314   62.0009 H       1  ZINC001085817863    0.0600
     27 H27       -12.4905    1.9381   60.9101 H       1  ZINC001085817863    0.0500
     28 H28       -14.0054    1.0629   60.5825 H       1  ZINC001085817863    0.0600
     29 H29       -12.1811    0.6241   62.9901 H       1  ZINC001085817863    0.0600
     30 H30       -13.6961   -0.2510   62.6626 H       1  ZINC001085817863    0.1100
     31 H31       -16.7287   -2.1444   60.6753 H       1  ZINC001085817863    0.0700
     32 H32       -16.7388   -2.4513   58.9221 H       1  ZINC001085817863    0.0700
     33 H33       -16.2234   -3.7310   60.0467 H       1  ZINC001085817863    0.0600
     34 H34       -15.1398   -0.9491   58.0969 H       1  ZINC001085817863    0.0800
     35 H35       -13.4804   -0.9558   58.7408 H       1  ZINC001085817863    0.1000
     36 H36       -15.3630   -4.3814   57.3000 H       1  ZINC001085817863    0.0800
     37 H37       -16.0844   -2.7663   56.8634 H       1  ZINC001085817863    0.1000
     38 H38       -13.6788   -4.2092   55.5240 H       1  ZINC001085817863    0.0700
     39 H39       -14.9074   -3.1312   54.7335 H       1  ZINC001085817863    0.0800
     40 H40       -11.6941   -1.4690   56.5407 H       1  ZINC001085817863    0.0900
     41 H41       -11.8283   -3.2110   56.2004 H       1  ZINC001085817863    0.0500
     42 H42       -12.1470    0.1763   54.6367 H       1  ZINC001085817863    0.1300
     43 H43       -11.6957    0.5308   52.2174 H       1  ZINC001085817863    0.1300
     44 H44       -11.2440   -1.4165   50.7795 H       1  ZINC001085817863    0.1600
     45 H45       -11.6563   -4.0153   53.9891 H       1  ZINC001085817863    0.1500
     46 H46       -11.5728   -3.3452   59.3898 H       1  ZINC001085817863    0.1600
     47 H47        -9.4608   -1.8420   59.7736 H       1  ZINC001085817863    0.1600
     48 H48        -9.9038    1.2535   60.7125 H       1  ZINC001085817863    0.0800
     49 H49       -10.2007    0.8017   62.4083 H       1  ZINC001085817863    0.0900
     50 H50        -8.8723    0.0374   61.5031 H       1  ZINC001085817863    0.0900
@<TRIPOS>BOND
     1     1     2    1
     2     1    26    1
     3     1    27    1
     4     1    28    1
     5     2     3    1
     6     2    29    1
     7     2    30    1
     8     3    24    1
     9     3     4    2
    10     4     5    1
    11     4    22    1
    12     5     6    2
    13     5     7   am
    14     7     8    1
    15     7     9    1
    16     8    31    1
    17     8    32    1
    18     8    33    1
    19     9    10    1
    20     9    34    1
    21     9    35    1
    22    10    11    1
    23    10    14    1
    24    10    12    1
    25    12    13    1
    26    12    36    1
    27    12    37    1
    28    13    14    1
    29    13    38    1
    30    13    39    1
    31    14    15    1
    32    15    16    1
    33    15    40    1
    34    15    41    1
    35    16    21   ar
    36    16    17   ar
    37    17    18   ar
    38    17    42    1
    39    18    19   ar
    40    18    43    1
    41    19    20   ar
    42    19    44    1
    43    20    21   ar
    44    21    45    1
    45    22    23    2
    46    22    46    1
    47    23    24    1
    48    23    47    1
    49    24    25    1
    50    25    48    1
    51    25    49    1
    52    25    50    1
@<TRIPOS>SUBSTRUCTURE
     1 ZINC001085817863        1 TEMP              0 ****  ****    0 ROOT


##########                                Name:    ZINC000949401225
##########                DOCK_Rotatable_Bonds:                   7
##########                         Heavy_Atoms:                  24
##########                    Molecular_Weight:             332.403
##########                DOCK_Rotatable_Bonds:                   7
##########                       Formal_Charge:                0.03
##########                     HBond_Acceptors:                   7
##########                        HBond_Donors:                   1
##########                         Heavy_Atoms:                  24
##########                          Grid_Score:          -28.956671
##########                     Grid_vdw_energy:          -26.382431
##########                      Grid_es_energy:           -2.574239
##########           Internal_energy_repulsive:           11.352717

@<TRIPOS>MOLECULE
ZINC000949401225
 48 50 1 0 0
SMALL
USER_CHARGES


@<TRIPOS>ATOM
      1 C1        -10.1627    1.6555   62.3179 C.3     1  ZINC000949401225    0.0700
      2 N2         -9.6814    1.2753   60.9875 N.pl3   1  ZINC000949401225   -0.4500
      3 C3         -9.5700   -0.0074   60.5358 C.2     1  ZINC000949401225   -0.0100
      4 C4         -9.0973    0.0144   59.2769 C.2     1  ZINC000949401225   -0.1700
      5 C5         -8.9049    1.4274   58.9332 C.2     1  ZINC000949401225   -0.2400
      6 C6         -8.4029    1.9678   57.6585 C.2     1  ZINC000949401225    0.5900
      7 O7         -8.1063    1.2126   56.7525 O.2     1  ZINC000949401225   -0.5500
      8 N8         -8.2722    3.2994   57.4960 N.am    1  ZINC000949401225   -0.7300
      9 C9         -7.7746    3.8371   56.2274 C.3     1  ZINC000949401225    0.1200
     10 C10        -6.2712    4.0983   56.3387 C.3     1  ZINC000949401225    0.1200
     11 H11        -6.0326    4.8896   57.0494 H       1  ZINC000949401225    0.1000
     12 C12        -5.4426    2.8225   56.5436 C.3     1  ZINC000949401225   -0.1500
     13 C13        -4.4618    3.5207   55.5914 C.3     1  ZINC000949401225    0.1000
     14 N14        -5.6068    4.2605   55.0368 N.am    1  ZINC000949401225   -0.6400
     15 C15        -5.9123    4.8325   53.8552 C.2     1  ZINC000949401225    0.5500
     16 O16        -6.9803    5.3882   53.7086 O.2     1  ZINC000949401225   -0.5200
     17 C17        -4.9267    4.7816   52.7164 C.3     1  ZINC000949401225   -0.1400
     18 C18        -5.0152    3.4191   52.0259 C.3     1  ZINC000949401225    0.1500
     19 H19        -4.8040    2.6214   52.7381 H       1  ZINC000949401225    0.0900
     20 C20        -6.4164    3.2244   51.4052 C.3     1  ZINC000949401225   -0.1200
     21 C21        -6.0839    2.4359   50.1173 C.3     1  ZINC000949401225   -0.1600
     22 C22        -4.6483    2.8056   49.8161 C.2     1  ZINC000949401225    0.5200
     23 O23        -4.0942    2.6292   48.7518 O.2     1  ZINC000949401225   -0.5300
     24 N24        -4.0746    3.3578   50.9009 N.am    1  ZINC000949401225   -0.6200
     25 C25        -2.6914    3.8377   50.9506 C.3     1  ZINC000949401225    0.0900
     26 C26        -9.2911    2.1420   60.0335 C.2     1  ZINC000949401225    0.0800
     27 H27       -11.2441    1.7879   62.2889 H       1  ZINC000949401225    0.0800
     28 H28        -9.9116    0.8719   63.0328 H       1  ZINC000949401225    0.0900
     29 H29        -9.6902    2.5896   62.6219 H       1  ZINC000949401225    0.0900
     30 H30        -9.8204   -0.8953   61.0975 H       1  ZINC000949401225    0.1700
     31 H31        -8.8987   -0.8385   58.6450 H       1  ZINC000949401225    0.1500
     32 H32        -8.5076    3.9016   58.2190 H       1  ZINC000949401225    0.4000
     33 H33        -7.9603    3.1176   55.4299 H       1  ZINC000949401225    0.0700
     34 H34        -8.2899    4.7708   56.0014 H       1  ZINC000949401225    0.0900
     35 H35        -5.0652    2.6929   57.5578 H       1  ZINC000949401225    0.1000
     36 H36        -5.8997    1.9222   56.1331 H       1  ZINC000949401225    0.1000
     37 H37        -3.7406    4.1586   56.1024 H       1  ZINC000949401225    0.0900
     38 H38        -3.9943    2.8435   54.8766 H       1  ZINC000949401225    0.0800
     39 H39        -5.1595    5.5684   51.9989 H       1  ZINC000949401225    0.1000
     40 H40        -3.9179    4.9285   53.1021 H       1  ZINC000949401225    0.1000
     41 H41        -7.0577    2.6405   52.0655 H       1  ZINC000949401225    0.1000
     42 H42        -6.8746    4.1843   51.1676 H       1  ZINC000949401225    0.0800
     43 H43        -6.1730    1.3637   50.2927 H       1  ZINC000949401225    0.1100
     44 H44        -6.7369    2.7453   49.3012 H       1  ZINC000949401225    0.1000
     45 H45        -2.2421    3.7544   49.9609 H       1  ZINC000949401225    0.0800
     46 H46        -2.6797    4.8803   51.2683 H       1  ZINC000949401225    0.0600
     47 H47        -2.1231    3.2355   51.6594 H       1  ZINC000949401225    0.0600
     48 H48        -9.2790    3.2181   60.1244 H       1  ZINC000949401225    0.1800
@<TRIPOS>BOND
     1     1     2    1
     2     1    27    1
     3     1    28    1
     4     1    29    1
     5     2    26    1
     6     2     3    1
     7     3     4    2
     8     3    30    1
     9     4     5    1
    10     4    31    1
    11     5     6    1
    12     5    26    2
    13     6     7    2
    14     6     8   am
    15     8     9    1
    16     8    32    1
    17     9    10    1
    18     9    33    1
    19     9    34    1
    20    10    11    1
    21    10    14    1
    22    10    12    1
    23    12    13    1
    24    12    35    1
    25    12    36    1
    26    13    14    1
    27    13    37    1
    28    13    38    1
    29    14    15   am
    30    15    16    2
    31    15    17    1
    32    17    18    1
    33    17    39    1
    34    17    40    1
    35    18    19    1
    36    18    24    1
    37    18    20    1
    38    20    21    1
    39    20    41    1
    40    20    42    1
    41    21    22    1
    42    21    43    1
    43    21    44    1
    44    22    23    2
    45    22    24   am
    46    24    25    1
    47    25    45    1
    48    25    46    1
    49    25    47    1
    50    26    48    1
@<TRIPOS>SUBSTRUCTURE
     1 ZINC000949401225        1 TEMP              0 ****  ****    0 ROOT


##########                                Name:    ZINC001011676549
##########                DOCK_Rotatable_Bonds:                   6
##########                         Heavy_Atoms:                  24
##########                    Molecular_Weight:             330.387
##########                DOCK_Rotatable_Bonds:                   6
##########                       Formal_Charge:        -1.49012e-07
##########                     HBond_Acceptors:                   7
##########                        HBond_Donors:                   1
##########                         Heavy_Atoms:                  24
##########                          Grid_Score:          -28.942177
##########                     Grid_vdw_energy:          -27.755310
##########                      Grid_es_energy:           -1.186867
##########           Internal_energy_repulsive:           19.642498

@<TRIPOS>MOLECULE
ZINC001011676549
 46 48 1 0 0
SMALL
USER_CHARGES


@<TRIPOS>ATOM
      1 C1         -3.1446    2.4635   52.2275 C.3     1  ZINC001011676549   -0.1700
      2 C2         -3.6639    3.5102   51.2398 C.3     1  ZINC001011676549    0.1300
      3 H3         -3.2098    3.3538   50.2613 H       1  ZINC001011676549    0.0900
      4 C4         -5.1998    3.4096   51.1277 C.3     1  ZINC001011676549    0.1400
      5 H5         -5.5266    3.6174   50.1088 H       1  ZINC001011676549    0.1100
      6 N6         -5.6657    2.0898   51.5604 N.am    1  ZINC001011676549   -0.7200
      7 C7         -6.7590    1.5420   50.9937 C.2     1  ZINC001011676549    0.5200
      8 O8         -7.3579    2.1423   50.1266 O.2     1  ZINC001011676549   -0.5300
      9 C9         -7.2373    0.1835   51.4375 C.3     1  ZINC001011676549   -0.0900
     10 C10        -8.3070    0.3457   52.4865 C.ar    1  ZINC001011676549   -0.1800
     11 C11        -9.4325   -0.4632   52.4832 C.ar    1  ZINC001011676549    0.1600
     12 N12       -10.3511   -0.2918   53.4203 N.ar    1  ZINC001011676549   -0.5200
     13 C13       -10.2052    0.6333   54.3476 C.ar    1  ZINC001011676549    0.3000
     14 N14        -9.1488    1.4203   54.3820 N.ar    1  ZINC001011676549   -0.5200
     15 C15        -8.1865    1.3033   53.4810 C.ar    1  ZINC001011676549    0.1600
     16 C16        -5.6922    4.5153   52.0984 C.3     1  ZINC001011676549   -0.1400
     17 C17        -4.6096    5.6058   51.9026 C.3     1  ZINC001011676549    0.1000
     18 N18        -3.3462    4.8599   51.7285 N.am    1  ZINC001011676549   -0.6100
     19 C19        -2.1111    5.3374   51.9797 C.2     1  ZINC001011676549    0.5800
     20 O20        -1.9700    6.4748   52.3864 O.2     1  ZINC001011676549   -0.5300
     21 C21        -0.9338    4.4827   51.7617 C.2     1  ZINC001011676549   -0.1400
     22 C22        -0.7023    4.0130   50.5492 C.2     1  ZINC001011676549   -0.1500
     23 C23         0.4697    3.1265   50.2351 C.3     1  ZINC001011676549    0.0900
     24 O24         1.4286    3.1873   51.2928 O.3     1  ZINC001011676549   -0.3800
     25 C25         0.8524    2.9733   52.5869 C.3     1  ZINC001011676549    0.0600
     26 C26        -0.0314    4.1787   52.9261 C.3     1  ZINC001011676549   -0.1100
     27 H27        -3.5932    2.6334   53.2063 H       1  ZINC001011676549    0.0600
     28 H28        -3.4103    1.4672   51.8741 H       1  ZINC001011676549    0.0700
     29 H29        -2.0605    2.5441   52.3057 H       1  ZINC001011676549    0.0800
     30 H30        -5.1874    1.6102   52.2546 H       1  ZINC001011676549    0.4100
     31 H31        -7.6456   -0.3551   50.5824 H       1  ZINC001011676549    0.1100
     32 H32        -6.4012   -0.3775   51.8549 H       1  ZINC001011676549    0.1100
     33 H33        -9.5583   -1.2230   51.7260 H       1  ZINC001011676549    0.1700
     34 H34       -10.9721    0.7496   55.0991 H       1  ZINC001011676549    0.2000
     35 H35        -7.3231    1.9513   53.5152 H       1  ZINC001011676549    0.1700
     36 H36        -6.6752    4.8835   51.8047 H       1  ZINC001011676549    0.0900
     37 H37        -5.7028    4.1556   53.1272 H       1  ZINC001011676549    0.0800
     38 H38        -4.8243    6.1982   51.0132 H       1  ZINC001011676549    0.0800
     39 H39        -4.5537    6.2471   52.7822 H       1  ZINC001011676549    0.0800
     40 H40        -1.3821    4.2760   49.7523 H       1  ZINC001011676549    0.1200
     41 H41         0.1248    2.0990   50.1186 H       1  ZINC001011676549    0.0700
     42 H42         0.9345    3.4573   49.3063 H       1  ZINC001011676549    0.1100
     43 H43         0.2502    2.0649   52.5741 H       1  ZINC001011676549    0.0600
     44 H44         1.6447    2.8806   53.3298 H       1  ZINC001011676549    0.1000
     45 H45         0.5986    5.0420   53.1401 H       1  ZINC001011676549    0.0900
     46 H46        -0.6399    3.9481   53.8006 H       1  ZINC001011676549    0.0900
@<TRIPOS>BOND
     1     1     2    1
     2     1    27    1
     3     1    28    1
     4     1    29    1
     5     2     3    1
     6     2    18    1
     7     2     4    1
     8     4     5    1
     9     4     6    1
    10     4    16    1
    11     6     7   am
    12     6    30    1
    13     7     8    2
    14     7     9    1
    15     9    10    1
    16     9    31    1
    17     9    32    1
    18    10    15   ar
    19    10    11   ar
    20    11    12   ar
    21    11    33    1
    22    12    13   ar
    23    13    14   ar
    24    13    34    1
    25    14    15   ar
    26    15    35    1
    27    16    17    1
    28    16    36    1
    29    16    37    1
    30    17    18    1
    31    17    38    1
    32    17    39    1
    33    18    19   am
    34    19    20    2
    35    19    21    1
    36    21    26    1
    37    21    22    2
    38    22    23    1
    39    22    40    1
    40    23    24    1
    41    23    41    1
    42    23    42    1
    43    24    25    1
    44    25    26    1
    45    25    43    1
    46    25    44    1
    47    26    45    1
    48    26    46    1
@<TRIPOS>SUBSTRUCTURE
     1 ZINC001011676549        1 TEMP              0 ****  ****    0 ROOT


##########                                Name:    ZINC000504638019
##########                DOCK_Rotatable_Bonds:                   8
##########                         Heavy_Atoms:                  24
##########                    Molecular_Weight:             328.454
##########                DOCK_Rotatable_Bonds:                   8
##########                       Formal_Charge:        -1.49012e-08
##########                     HBond_Acceptors:                   4
##########                        HBond_Donors:                   1
##########                         Heavy_Atoms:                  24
##########                          Grid_Score:          -28.895321
##########                     Grid_vdw_energy:          -28.374939
##########                      Grid_es_energy:           -0.520381
##########           Internal_energy_repulsive:           11.789422

@<TRIPOS>MOLECULE
ZINC000504638019
 52 53 1 0 0
SMALL
USER_CHARGES


@<TRIPOS>ATOM
      1 C1         -9.2676   -0.9355   60.2330 C.3     1  ZINC000504638019   -0.1200
      2 C2        -10.2092   -1.5274   59.2160 C.ar    1  ZINC000504638019   -0.0900
      3 C3        -11.3656   -0.8536   58.8702 C.ar    1  ZINC000504638019   -0.1200
      4 C4        -12.2292   -1.3965   57.9375 C.ar    1  ZINC000504638019   -0.1100
      5 C5        -11.9363   -2.6131   57.3501 C.ar    1  ZINC000504638019   -0.0900
      6 C6        -12.8781   -3.2052   56.3335 C.3     1  ZINC000504638019   -0.0600
      7 H7        -12.4699   -4.1461   55.9647 H       1  ZINC000504638019    0.0900
      8 C8        -14.2383   -3.4604   56.9863 C.3     1  ZINC000504638019   -0.1500
      9 C9        -13.0474   -2.2303   55.1666 C.3     1  ZINC000504638019    0.1300
     10 N10       -11.7330   -1.9054   54.6071 N.am    1  ZINC000504638019   -0.7000
     11 C11       -11.6164   -0.9333   53.6809 C.2     1  ZINC000504638019    0.5100
     12 O12       -12.6001   -0.3262   53.3115 O.2     1  ZINC000504638019   -0.5100
     13 C13       -10.2759   -0.6030   53.1088 C.2     1  ZINC000504638019    0.5100
     14 O14        -9.8760   -1.1874   52.1233 O.2     1  ZINC000504638019   -0.5200
     15 N15        -9.5110    0.3439   53.6874 N.am    1  ZINC000504638019   -0.5800
     16 C16        -9.9937    1.0495   54.8770 C.3     1  ZINC000504638019    0.0600
     17 C17        -8.1969    0.6676   53.1266 C.3     1  ZINC000504638019    0.1100
     18 C18        -8.3692    1.6135   51.9364 C.3     1  ZINC000504638019   -0.1000
     19 H19        -9.1845    1.2619   51.3041 H       1  ZINC000504638019    0.0800
     20 C20        -7.0727    1.6609   51.1250 C.3     1  ZINC000504638019   -0.0800
     21 C21        -7.1328    2.7728   50.1189 C.2     1  ZINC000504638019   -0.1500
     22 C22        -7.9763    3.7532   50.1713 C.2     1  ZINC000504638019   -0.1600
     23 C23        -9.0185    3.9098   51.2396 C.3     1  ZINC000504638019   -0.0900
     24 C24        -8.6820    3.0274   52.4425 C.3     1  ZINC000504638019   -0.1100
     25 C25       -10.7792   -3.2863   57.6949 C.ar    1  ZINC000504638019   -0.1100
     26 C26        -9.9137   -2.7415   58.6249 C.ar    1  ZINC000504638019   -0.1200
     27 H27        -8.5367   -0.3045   59.7274 H       1  ZINC000504638019    0.0700
     28 H28        -9.8334   -0.3361   60.9464 H       1  ZINC000504638019    0.0700
     29 H29        -8.7519   -1.7376   60.7608 H       1  ZINC000504638019    0.0700
     30 H30       -11.5945    0.0969   59.3291 H       1  ZINC000504638019    0.1200
     31 H31       -13.1331   -0.8704   57.6678 H       1  ZINC000504638019    0.1200
     32 H32       -14.9195   -3.8886   56.2510 H       1  ZINC000504638019    0.0600
     33 H33       -14.1177   -4.1549   57.8176 H       1  ZINC000504638019    0.0600
     34 H34       -14.6465   -2.5195   57.3551 H       1  ZINC000504638019    0.0600
     35 H35       -13.6667   -2.6897   54.3962 H       1  ZINC000504638019    0.0800
     36 H36       -13.5267   -1.3180   55.5219 H       1  ZINC000504638019    0.0800
     37 H37       -10.9466   -2.3899   54.9034 H       1  ZINC000504638019    0.4100
     38 H38        -9.7750    0.4564   55.7650 H       1  ZINC000504638019    0.0600
     39 H39        -9.4951    2.0157   54.9537 H       1  ZINC000504638019    0.0700
     40 H40       -11.0702    1.2014   54.7976 H       1  ZINC000504638019    0.1100
     41 H41        -7.5854    1.1505   53.8888 H       1  ZINC000504638019    0.0900
     42 H42        -7.7077   -0.2482   52.7949 H       1  ZINC000504638019    0.0900
     43 H43        -6.2313    1.8275   51.7978 H       1  ZINC000504638019    0.0800
     44 H44        -6.9358    0.7118   50.6069 H       1  ZINC000504638019    0.0600
     45 H45        -6.4284    2.7538   49.3006 H       1  ZINC000504638019    0.1000
     46 H46        -7.9268    4.5057   49.3981 H       1  ZINC000504638019    0.1000
     47 H47        -9.0586    4.9524   51.5552 H       1  ZINC000504638019    0.0700
     48 H48        -9.9902    3.6172   50.8421 H       1  ZINC000504638019    0.0700
     49 H49        -9.5318    2.9981   53.1245 H       1  ZINC000504638019    0.0700
     50 H50        -7.8086    3.4273   52.9575 H       1  ZINC000504638019    0.0700
     51 H51       -10.5501   -4.2366   57.2357 H       1  ZINC000504638019    0.1200
     52 H52        -9.0097   -3.2675   58.8942 H       1  ZINC000504638019    0.1200
@<TRIPOS>BOND
     1     1     2    1
     2     1    27    1
     3     1    28    1
     4     1    29    1
     5     2    26   ar
     6     2     3   ar
     7     3     4   ar
     8     3    30    1
     9     4     5   ar
    10     4    31    1
    11     5     6    1
    12     5    25   ar
    13     6     7    1
    14     6     8    1
    15     6     9    1
    16     8    32    1
    17     8    33    1
    18     8    34    1
    19     9    10    1
    20     9    35    1
    21     9    36    1
    22    10    11   am
    23    10    37    1
    24    11    12    2
    25    11    13    1
    26    13    14    2
    27    13    15   am
    28    15    16    1
    29    15    17    1
    30    16    38    1
    31    16    39    1
    32    16    40    1
    33    17    18    1
    34    17    41    1
    35    17    42    1
    36    18    19    1
    37    18    24    1
    38    18    20    1
    39    20    21    1
    40    20    43    1
    41    20    44    1
    42    21    22    2
    43    21    45    1
    44    22    23    1
    45    22    46    1
    46    23    24    1
    47    23    47    1
    48    23    48    1
    49    24    49    1
    50    24    50    1
    51    25    26   ar
    52    25    51    1
    53    26    52    1
@<TRIPOS>SUBSTRUCTURE
     1 ZINC000504638019        1 TEMP              0 ****  ****    0 ROOT


##########                                Name:    ZINC000463741321
##########                DOCK_Rotatable_Bonds:                   7
##########                         Heavy_Atoms:                  26
##########                    Molecular_Weight:             354.467
##########                DOCK_Rotatable_Bonds:                   7
##########                       Formal_Charge:         -6.4075e-07
##########                     HBond_Acceptors:                   4
##########                        HBond_Donors:                   1
##########                         Heavy_Atoms:                  26
##########                          Grid_Score:          -28.894009
##########                     Grid_vdw_energy:          -28.826946
##########                      Grid_es_energy:           -0.067061
##########           Internal_energy_repulsive:            9.292256

@<TRIPOS>MOLECULE
ZINC000463741321
 53 55 1 0 0
SMALL
USER_CHARGES


@<TRIPOS>ATOM
      1 C1        -11.0407   -1.9830   52.3699 C.3     1  ZINC000463741321   -0.1500
      2 C2        -11.6674   -0.7975   53.1066 C.3     1  ZINC000463741321   -0.1100
      3 H3        -12.7446   -0.7942   52.9396 H       1  ZINC000463741321    0.1000
      4 C4        -11.3841   -0.9207   54.6051 C.3     1  ZINC000463741321   -0.0900
      5 C5        -12.3989   -1.8739   55.2394 C.3     1  ZINC000463741321   -0.0800
      6 C6        -12.0485   -2.0884   56.6892 C.ar    1  ZINC000463741321   -0.1200
      7 C7        -11.2652   -3.1650   57.0589 C.ar    1  ZINC000463741321   -0.0900
      8 C8        -10.9435   -3.3622   58.3892 C.ar    1  ZINC000463741321   -0.1300
      9 C9        -11.4053   -2.4830   59.3506 C.ar    1  ZINC000463741321   -0.1000
     10 C10       -12.1893   -1.4057   58.9832 C.ar    1  ZINC000463741321   -0.1500
     11 C11       -12.5066   -1.2035   57.6509 C.ar    1  ZINC000463741321    0.1000
     12 F12       -13.2728   -0.1508   57.2906 F       1  ZINC000463741321   -0.1400
     13 C13       -11.0748    0.4870   52.5872 C.2     1  ZINC000463741321    0.5200
     14 O14       -11.7689    1.2715   51.9758 O.2     1  ZINC000463741321   -0.5300
     15 N15        -9.7734    0.7640   52.8019 N.am    1  ZINC000463741321   -0.7300
     16 C16        -9.1969    2.0120   52.2953 C.3     1  ZINC000463741321    0.1500
     17 H17        -9.7171    2.3101   51.3852 H       1  ZINC000463741321    0.1000
     18 C18        -9.3458    3.1099   53.3522 C.3     1  ZINC000463741321   -0.1300
     19 C19        -8.6878    4.3938   52.8392 C.3     1  ZINC000463741321   -0.1200
     20 C20        -7.2175    4.1148   52.5188 C.3     1  ZINC000463741321    0.0600
     21 N21        -7.1287    3.0583   51.5028 N.3     1  ZINC000463741321   -0.4800
     22 C22        -5.8075    2.8700   51.0907 C.ar    1  ZINC000463741321    0.1100
     23 C23        -4.8118    2.6359   52.0307 C.ar    1  ZINC000463741321   -0.1700
     24 C24        -3.5065    2.4496   51.6199 C.ar    1  ZINC000463741321   -0.0900
     25 C25        -3.1901    2.4965   50.2746 C.ar    1  ZINC000463741321   -0.1500
     26 C26        -4.1788    2.7293   49.3362 C.ar    1  ZINC000463741321   -0.0900
     27 C27        -5.4870    2.9108   49.7397 C.ar    1  ZINC000463741321   -0.1400
     28 C28        -7.7121    1.8017   51.9898 C.3     1  ZINC000463741321    0.0500
     29 H29        -9.9635   -1.9862   52.5368 H       1  ZINC000463741321    0.0600
     30 H30       -11.4694   -2.9120   52.7456 H       1  ZINC000463741321    0.0700
     31 H31       -11.2426   -1.8953   51.3023 H       1  ZINC000463741321    0.0600
     32 H32       -10.3771   -1.3108   54.7536 H       1  ZINC000463741321    0.0700
     33 H33       -11.4660    0.0608   55.0722 H       1  ZINC000463741321    0.0700
     34 H34       -13.3972   -1.4424   55.1669 H       1  ZINC000463741321    0.0800
     35 H35       -12.3771   -2.8292   54.7151 H       1  ZINC000463741321    0.0800
     36 H36       -10.9045   -3.8530   56.3087 H       1  ZINC000463741321    0.1300
     37 H37       -10.3313   -4.2040   58.6772 H       1  ZINC000463741321    0.1300
     38 H38       -11.1537   -2.6383   60.3894 H       1  ZINC000463741321    0.1300
     39 H39       -12.5506   -0.7193   59.7347 H       1  ZINC000463741321    0.1400
     40 H40        -9.2186    0.1372   53.2918 H       1  ZINC000463741321    0.4000
     41 H41       -10.4037    3.2930   53.5407 H       1  ZINC000463741321    0.0700
     42 H42        -8.8594    2.7951   54.2755 H       1  ZINC000463741321    0.0600
     43 H43        -9.1995    4.7297   51.9373 H       1  ZINC000463741321    0.0800
     44 H44        -8.7530    5.1671   53.6047 H       1  ZINC000463741321    0.0800
     45 H45        -6.7498    5.0234   52.1398 H       1  ZINC000463741321    0.0900
     46 H46        -6.7033    3.7923   53.4241 H       1  ZINC000463741321    0.0500
     47 H47        -5.0582    2.5998   53.0816 H       1  ZINC000463741321    0.1200
     48 H48        -2.7320    2.2675   52.3502 H       1  ZINC000463741321    0.1200
     49 H49        -2.1684    2.3512   49.9561 H       1  ZINC000463741321    0.1200
     50 H50        -3.9282    2.7654   48.2862 H       1  ZINC000463741321    0.1200
     51 H51        -6.2588    3.0924   49.0064 H       1  ZINC000463741321    0.1300
     52 H52        -7.1960    1.4896   52.8976 H       1  ZINC000463741321    0.0500
     53 H53        -7.6031    1.0310   51.2267 H       1  ZINC000463741321    0.0900
@<TRIPOS>BOND
     1     1     2    1
     2     1    29    1
     3     1    30    1
     4     1    31    1
     5     2     3    1
     6     2     4    1
     7     2    13    1
     8     4     5    1
     9     4    32    1
    10     4    33    1
    11     5     6    1
    12     5    34    1
    13     5    35    1
    14     6    11   ar
    15     6     7   ar
    16     7     8   ar
    17     7    36    1
    18     8     9   ar
    19     8    37    1
    20     9    10   ar
    21     9    38    1
    22    10    11   ar
    23    10    39    1
    24    11    12    1
    25    13    14    2
    26    13    15   am
    27    15    16    1
    28    15    40    1
    29    16    17    1
    30    16    28    1
    31    16    18    1
    32    18    19    1
    33    18    41    1
    34    18    42    1
    35    19    20    1
    36    19    43    1
    37    19    44    1
    38    20    21    1
    39    20    45    1
    40    20    46    1
    41    21    22    1
    42    21    28    1
    43    22    27   ar
    44    22    23   ar
    45    23    24   ar
    46    23    47    1
    47    24    25   ar
    48    24    48    1
    49    25    26   ar
    50    25    49    1
    51    26    27   ar
    52    26    50    1
    53    27    51    1
    54    28    52    1
    55    28    53    1
@<TRIPOS>SUBSTRUCTURE
     1 ZINC000463741321        1 TEMP              0 ****  ****    0 ROOT


##########                                Name:    ZINC000443394081
##########                DOCK_Rotatable_Bonds:                   8
##########                         Heavy_Atoms:                  27
##########                    Molecular_Weight:             389.878
##########                DOCK_Rotatable_Bonds:                   8
##########                       Formal_Charge:          -0.0300003
##########                     HBond_Acceptors:                   6
##########                        HBond_Donors:                   1
##########                         Heavy_Atoms:                  27
##########                          Grid_Score:          -28.892513
##########                     Grid_vdw_energy:          -29.128746
##########                      Grid_es_energy:            0.236233
##########           Internal_energy_repulsive:           34.347496

@<TRIPOS>MOLECULE
ZINC000443394081
 51 53 1 0 0
SMALL
USER_CHARGES


@<TRIPOS>ATOM
      1 C1         -9.4899    2.2622   59.2217 C.3     1  ZINC000443394081    0.0200
      2 O2         -8.7623    1.0483   59.4201 O.3     1  ZINC000443394081   -0.3000
      3 C3         -9.4753   -0.1095   59.3985 C.ar    1  ZINC000443394081    0.1000
      4 C4         -9.9132   -0.6285   58.1959 C.ar    1  ZINC000443394081   -0.1200
      5 C5        -10.6453   -1.8190   58.1774 C.ar    1  ZINC000443394081   -0.1300
      6 C6        -11.1153   -2.3783   56.8948 C.2     1  ZINC000443394081    0.5700
      7 O7        -10.6604   -3.4295   56.4869 O.2     1  ZINC000443394081   -0.4900
      8 N8        -12.0487   -1.7240   56.1759 N.am    1  ZINC000443394081   -0.6100
      9 C9        -12.6824   -0.4467   56.5507 C.3     1  ZINC000443394081    0.0900
     10 C10       -13.1544    0.1701   55.2103 C.3     1  ZINC000443394081   -0.1300
     11 C11       -13.6128   -1.0909   54.4314 C.3     1  ZINC000443394081   -0.1000
     12 H12       -14.6276   -1.3711   54.7138 H       1  ZINC000443394081    0.0900
     13 C13       -13.5175   -0.8593   52.9220 C.3     1  ZINC000443394081   -0.1500
     14 C14       -12.5990   -2.1623   54.8849 C.3     1  ZINC000443394081    0.1400
     15 H15       -13.1030   -3.1208   55.0088 H       1  ZINC000443394081    0.0800
     16 C16       -11.4810   -2.2926   53.8486 C.3     1  ZINC000443394081    0.0600
     17 O17       -11.9540   -3.0453   52.7297 O.3     1  ZINC000443394081   -0.5400
     18 C18       -10.9309   -2.4784   59.3750 C.ar    1  ZINC000443394081   -0.1000
     19 C19       -10.4914   -1.9548   60.5718 C.ar    1  ZINC000443394081   -0.1800
     20 C20        -9.7594   -0.7757   60.5901 C.ar    1  ZINC000443394081    0.1300
     21 O21        -9.3286   -0.2639   61.7718 O.3     1  ZINC000443394081   -0.3000
     22 C22       -10.3045    0.3783   62.5948 C.3     1  ZINC000443394081    0.1000
     23 C23        -9.7925    0.4606   64.0098 C.ar    1  ZINC000443394081   -0.0800
     24 C24        -8.9260   -0.5037   64.4884 C.ar    1  ZINC000443394081   -0.0800
     25 C25        -8.4562   -0.4285   65.7866 C.ar    1  ZINC000443394081   -0.1100
     26 C26        -8.8533    0.6109   66.6067 C.ar    1  ZINC000443394081   -0.1000
     27 C27        -9.7201    1.5761   66.1291 C.ar    1  ZINC000443394081   -0.1100
     28 C28       -10.1855    1.5047   64.8284 C.ar    1  ZINC000443394081   -0.0300
     29 Cl29      -11.2740    2.7164   64.2279 Cl      1  ZINC000443394081   -0.0700
     30 H30        -8.8036    3.1080   59.2623 H       1  ZINC000443394081    0.1000
     31 H31        -9.9790    2.2375   58.2480 H       1  ZINC000443394081    0.0600
     32 H32       -10.2422    2.3668   60.0036 H       1  ZINC000443394081    0.0600
     33 H33        -9.6907   -0.1155   57.2720 H       1  ZINC000443394081    0.1500
     34 H34       -13.5341   -0.6241   57.2073 H       1  ZINC000443394081    0.0700
     35 H35       -11.9585    0.2081   57.0355 H       1  ZINC000443394081    0.0800
     36 H36       -13.9867    0.8561   55.3676 H       1  ZINC000443394081    0.0900
     37 H37       -12.3312    0.6680   54.6981 H       1  ZINC000443394081    0.0800
     38 H38       -12.4901   -0.6100   52.6568 H       1  ZINC000443394081    0.0600
     39 H39       -13.8191   -1.7649   52.3956 H       1  ZINC000443394081    0.0600
     40 H40       -14.1755   -0.0379   52.6382 H       1  ZINC000443394081    0.0600
     41 H41       -11.1763   -1.3003   53.5162 H       1  ZINC000443394081    0.0600
     42 H42       -10.6286   -2.8036   54.2961 H       1  ZINC000443394081    0.0400
     43 H43       -12.2428   -3.9410   52.9520 H       1  ZINC000443394081    0.3700
     44 H44       -11.4964   -3.3984   59.3633 H       1  ZINC000443394081    0.1400
     45 H45       -10.7132   -2.4656   61.4972 H       1  ZINC000443394081    0.1400
     46 H46       -10.4931    1.3835   62.2177 H       1  ZINC000443394081    0.0800
     47 H47       -11.2304   -0.1964   62.5763 H       1  ZINC000443394081    0.0800
     48 H48        -8.6159   -1.3165   63.8483 H       1  ZINC000443394081    0.1400
     49 H49        -7.7790   -1.1823   66.1601 H       1  ZINC000443394081    0.1300
     50 H50        -8.4866    0.6688   67.6209 H       1  ZINC000443394081    0.1300
     51 H51       -10.0302    2.3882   66.7699 H       1  ZINC000443394081    0.1400
@<TRIPOS>BOND
     1     1     2    1
     2     1    30    1
     3     1    31    1
     4     1    32    1
     5     2     3    1
     6     3    20   ar
     7     3     4   ar
     8     4     5   ar
     9     4    33    1
    10     5     6    1
    11     5    18   ar
    12     6     7    2
    13     6     8   am
    14     8    14    1
    15     8     9    1
    16     9    10    1
    17     9    34    1
    18     9    35    1
    19    10    11    1
    20    10    36    1
    21    10    37    1
    22    11    12    1
    23    11    13    1
    24    11    14    1
    25    13    38    1
    26    13    39    1
    27    13    40    1
    28    14    15    1
    29    14    16    1
    30    16    17    1
    31    16    41    1
    32    16    42    1
    33    17    43    1
    34    18    19   ar
    35    18    44    1
    36    19    20   ar
    37    19    45    1
    38    20    21    1
    39    21    22    1
    40    22    23    1
    41    22    46    1
    42    22    47    1
    43    23    28   ar
    44    23    24   ar
    45    24    25   ar
    46    24    48    1
    47    25    26   ar
    48    25    49    1
    49    26    27   ar
    50    26    50    1
    51    27    28   ar
    52    27    51    1
    53    28    29    1
@<TRIPOS>SUBSTRUCTURE
     1 ZINC000443394081        1 TEMP              0 ****  ****    0 ROOT


##########                                Name:    ZINC000266467123
##########                DOCK_Rotatable_Bonds:                   9
##########                         Heavy_Atoms:                  25
##########                    Molecular_Weight:             337.421
##########                DOCK_Rotatable_Bonds:                   9
##########                       Formal_Charge:                0.02
##########                     HBond_Acceptors:                   5
##########                        HBond_Donors:                   3
##########                         Heavy_Atoms:                  25
##########                          Grid_Score:          -28.889658
##########                     Grid_vdw_energy:          -26.225805
##########                      Grid_es_energy:           -2.663853
##########           Internal_energy_repulsive:            9.967772

@<TRIPOS>MOLECULE
ZINC000266467123
 48 50 1 0 0
SMALL
USER_CHARGES


@<TRIPOS>ATOM
      1 C1         -8.0378   -0.2790   51.9528 C.3     1  <0>        -0.1600
      2 C2         -7.5959    1.1855   51.9222 C.3     1  <0>         0.1500
      3 H3         -8.0418    1.6815   51.0602 H       1  <0>         0.1200
      4 N4         -6.1358    1.2529   51.8232 N.am    1  <0>        -0.7300
      5 C5         -5.5495    2.3011   51.2114 C.2     1  <0>         0.7100
      6 O6         -6.2323    3.1913   50.7430 O.2     1  <0>        -0.5900
      7 N7         -4.2064    2.3623   51.1190 N.am    1  <0>        -0.7100
      8 C8         -3.5690    3.5024   50.4556 C.3     1  <0>         0.1100
      9 H9         -4.2432    4.1741   49.9240 H       1  <0>         0.1400
     10 C10        -2.1751    3.2862   49.8630 C.3     1  <0>        -0.1900
     11 C11        -2.3456    4.1214   51.1345 C.3     1  <0>        -0.1500
     12 H12        -2.2146    5.2001   51.0495 H       1  <0>         0.1200
     13 C13        -1.8805    3.5021   52.4541 C.3     1  <0>        -0.0500
     14 C14        -0.3883    3.2949   52.4133 C.ar    1  <0>        -0.0800
     15 C15         0.1330    2.1240   51.8955 C.ar    1  <0>        -0.1100
     16 C16         1.5017    1.9340   51.8581 C.ar    1  <0>        -0.1200
     17 C17         2.3491    2.9149   52.3381 C.ar    1  <0>        -0.1200
     18 C18         1.8278    4.0862   52.8551 C.ar    1  <0>        -0.1200
     19 C19         0.4593    4.2782   52.8886 C.ar    1  <0>        -0.1200
     20 C20        -8.0460    1.8725   53.1857 C.2     1  <0>         0.5100
     21 O21        -9.0711    2.5207   53.1914 O.2     1  <0>        -0.5100
     22 N22        -7.3095    1.7664   54.3094 N.am    1  <0>        -0.6700
     23 C23        -7.7274    2.4043   55.4826 C.ar    1  <0>         0.1400
     24 C24        -8.5176    1.7248   56.4004 C.ar    1  <0>        -0.1400
     25 C25        -8.9285    2.3573   57.5575 C.ar    1  <0>        -0.1000
     26 C26        -8.5544    3.6657   57.8022 C.ar    1  <0>        -0.1300
     27 C27        -7.7680    4.3453   56.8901 C.ar    1  <0>        -0.1000
     28 C28        -7.3482    3.7163   55.7343 C.ar    1  <0>        -0.1200
     29 H29        -9.1241   -0.3294   52.0264 H       1  <0>         0.0700
     30 H30        -7.7122   -0.7761   51.0389 H       1  <0>         0.0800
     31 H31        -7.5918   -0.7752   52.8148 H       1  <0>         0.0700
     32 H32        -5.5910    0.5433   52.1980 H       1  <0>         0.4100
     33 H33        -3.6617    1.6514   51.4917 H       1  <0>         0.4000
     34 H34        -1.7322    2.2957   49.9669 H       1  <0>         0.1000
     35 H35        -1.9320    3.8160   48.9419 H       1  <0>         0.1000
     36 H36        -2.1321    4.1704   53.2776 H       1  <0>         0.0800
     37 H37        -2.3766    2.5428   52.6001 H       1  <0>         0.0700
     38 H38        -0.5291    1.3577   51.5205 H       1  <0>         0.1200
     39 H39         1.9089    1.0188   51.4541 H       1  <0>         0.1200
     40 H40         3.4184    2.7662   52.3095 H       1  <0>         0.1200
     41 H41         2.4899    4.8525   53.2304 H       1  <0>         0.1200
     42 H42         0.0520    5.1932   53.2924 H       1  <0>         0.1200
     43 H43        -6.4898    1.2480   54.3049 H       1  <0>         0.4100
     44 H44        -8.8108    0.7031   56.2095 H       1  <0>         0.1300
     45 H45        -9.5431    1.8293   58.2717 H       1  <0>         0.1300
     46 H46        -8.8772    4.1582   58.7076 H       1  <0>         0.1200
     47 H47        -7.4780    5.3674   57.0837 H       1  <0>         0.1300
     48 H48        -6.7341    4.2475   55.0222 H       1  <0>         0.1400
@<TRIPOS>BOND
     1     1     2    1
     2     1    29    1
     3     1    30    1
     4     1    31    1
     5     2     3    1
     6     2     4    1
     7     2    20    1
     8     4     5   am
     9     4    32    1
    10     5     6    2
    11     5     7   am
    12     7     8    1
    13     7    33    1
    14     8     9    1
    15     8    11    1
    16     8    10    1
    17    10    11    1
    18    10    34    1
    19    10    35    1
    20    11    12    1
    21    11    13    1
    22    13    14    1
    23    13    36    1
    24    13    37    1
    25    14    19   ar
    26    14    15   ar
    27    15    16   ar
    28    15    38    1
    29    16    17   ar
    30    16    39    1
    31    17    18   ar
    32    17    40    1
    33    18    19   ar
    34    18    41    1
    35    19    42    1
    36    20    21    2
    37    20    22   am
    38    22    23    1
    39    22    43    1
    40    23    28   ar
    41    23    24   ar
    42    24    25   ar
    43    24    44    1
    44    25    26   ar
    45    25    45    1
    46    26    27   ar
    47    26    46    1
    48    27    28   ar
    49    27    47    1
    50    28    48    1
@<TRIPOS>SUBSTRUCTURE
     1 <0>         1 TEMP              0 ****  ****    0 ROOT


##########                                Name:    ZINC000962730513
##########                DOCK_Rotatable_Bonds:                   6
##########                         Heavy_Atoms:                  24
##########                    Molecular_Weight:             342.465
##########                DOCK_Rotatable_Bonds:                   6
##########                       Formal_Charge:         -0.00999998
##########                     HBond_Acceptors:                   6
##########                        HBond_Donors:                   1
##########                         Heavy_Atoms:                  24
##########                          Grid_Score:          -28.867840
##########                     Grid_vdw_energy:          -28.605127
##########                      Grid_es_energy:           -0.262712
##########           Internal_energy_repulsive:           14.892610

@<TRIPOS>MOLECULE
ZINC000962730513
 46 49 1 0 0
SMALL
USER_CHARGES


@<TRIPOS>ATOM
      1 C1        -16.6878   -2.3068   57.0967 C.3     1  ZINC000962730513   -0.1400
      2 C2        -15.7902   -3.3744   57.7258 C.3     1  ZINC000962730513   -0.0800
      3 C3        -15.1572   -2.8242   58.9779 C.2     1  ZINC000962730513   -0.0100
      4 C4        -14.1166   -1.9384   58.9667 C.2     1  ZINC000962730513   -0.2800
      5 C5        -13.4716   -1.3994   57.7659 C.2     1  ZINC000962730513    0.6000
      6 O6        -12.9813   -0.2856   57.7863 O.2     1  ZINC000962730513   -0.5200
      7 N7        -13.4213   -2.1373   56.6392 N.am    1  ZINC000962730513   -0.7000
      8 C8        -12.7781   -1.5979   55.4385 C.3     1  ZINC000962730513    0.1200
      9 H9        -13.4029   -0.9529   54.8207 H       1  ZINC000962730513    0.1400
     10 C10       -11.7603   -2.4886   54.7232 C.3     1  ZINC000962730513   -0.1700
     11 H11       -11.5935   -3.5057   55.0780 H       1  ZINC000962730513    0.1200
     12 C12       -11.4411   -2.1857   53.2436 C.3     1  ZINC000962730513    0.0700
     13 N13       -10.3505   -1.1782   53.2944 N.3     1  ZINC000962730513   -0.5000
     14 C14       -10.2681   -0.4274   52.0344 C.3     1  ZINC000962730513    0.1100
     15 C15        -8.9393    0.2790   51.9565 C.ar    1  ZINC000962730513    0.3200
     16 N16        -8.9060    1.5939   52.0397 N.ar    1  ZINC000962730513   -0.5100
     17 C17        -7.7576    2.2484   51.9752 C.ar    1  ZINC000962730513    0.1500
     18 C18        -6.5814    1.5323   51.8183 C.ar    1  ZINC000962730513   -0.1900
     19 C19        -5.2525    2.2387   51.7409 C.3     1  ZINC000962730513   -0.1100
     20 C20        -6.6568    0.1509   51.7346 C.ar    1  ZINC000962730513    0.1500
     21 N21        -7.8409   -0.4349   51.8123 N.ar    1  ZINC000962730513   -0.5000
     22 C22       -10.7291   -0.2872   54.4213 C.3     1  ZINC000962730513    0.0700
     23 C23       -11.2883   -1.2614   55.5274 C.3     1  ZINC000962730513   -0.1700
     24 H24       -10.7351   -1.3329   56.4639 H       1  ZINC000962730513    0.1300
     25 S25       -13.6760   -1.5484   60.6236 S.3     1  ZINC000962730513    0.1900
     26 C26       -14.8906   -2.5771   61.2382 C.2     1  ZINC000962730513   -0.2200
     27 C27       -15.5727   -3.1590   60.2447 C.2     1  ZINC000962730513   -0.1500
     28 H28       -17.4675   -2.0248   57.8042 H       1  ZINC000962730513    0.0600
     29 H29       -16.0897   -1.4307   56.8466 H       1  ZINC000962730513    0.0500
     30 H30       -17.1456   -2.7048   56.1910 H       1  ZINC000962730513    0.0600
     31 H31       -16.3884   -4.2506   57.9758 H       1  ZINC000962730513    0.1000
     32 H32       -15.0105   -3.6565   57.0183 H       1  ZINC000962730513    0.0700
     33 H33       -13.8110   -3.0254   56.6233 H       1  ZINC000962730513    0.4000
     34 H34       -11.1013   -3.0882   52.7354 H       1  ZINC000962730513    0.0900
     35 H35       -12.3167   -1.7731   52.7425 H       1  ZINC000962730513    0.0500
     36 H36       -10.3636   -1.1156   51.1945 H       1  ZINC000962730513    0.1000
     37 H37       -11.0728    0.3069   51.9958 H       1  ZINC000962730513    0.0700
     38 H38        -7.7373    3.3260   52.0438 H       1  ZINC000962730513    0.1700
     39 H39        -4.8368    2.3416   52.7432 H       1  ZINC000962730513    0.0800
     40 H40        -4.5683    1.6586   51.1215 H       1  ZINC000962730513    0.0700
     41 H41        -5.3912    3.2266   51.3018 H       1  ZINC000962730513    0.0700
     42 H42        -5.7610   -0.4396   51.6116 H       1  ZINC000962730513    0.1700
     43 H43        -9.8533    0.2397   54.8000 H       1  ZINC000962730513    0.0800
     44 H44       -11.4933    0.4225   54.1045 H       1  ZINC000962730513    0.0600
     45 H45       -15.0856   -2.7344   62.2887 H       1  ZINC000962730513    0.1700
     46 H46       -16.3849   -3.8475   60.4251 H       1  ZINC000962730513    0.1500
@<TRIPOS>BOND
     1     1     2    1
     2     1    28    1
     3     1    29    1
     4     1    30    1
     5     2     3    1
     6     2    31    1
     7     2    32    1
     8     3    27    1
     9     3     4    2
    10     4     5    1
    11     4    25    1
    12     5     6    2
    13     5     7   am
    14     7     8    1
    15     7    33    1
    16     8     9    1
    17     8    23    1
    18     8    10    1
    19    10    11    1
    20    10    23    1
    21    10    12    1
    22    12    13    1
    23    12    34    1
    24    12    35    1
    25    13    14    1
    26    13    22    1
    27    14    15    1
    28    14    36    1
    29    14    37    1
    30    15    21   ar
    31    15    16   ar
    32    16    17   ar
    33    17    18   ar
    34    17    38    1
    35    18    19    1
    36    18    20   ar
    37    19    39    1
    38    19    40    1
    39    19    41    1
    40    20    21   ar
    41    20    42    1
    42    22    23    1
    43    22    43    1
    44    22    44    1
    45    23    24    1
    46    25    26    1
    47    26    27    2
    48    26    45    1
    49    27    46    1
@<TRIPOS>SUBSTRUCTURE
     1 ZINC000962730513        1 TEMP              0 ****  ****    0 ROOT


##########                                Name:    ZINC000821442454
##########                DOCK_Rotatable_Bonds:                   6
##########                         Heavy_Atoms:                  26
##########                    Molecular_Weight:             398.873
##########                DOCK_Rotatable_Bonds:                   6
##########                       Formal_Charge:          -0.0399996
##########                     HBond_Acceptors:                  11
##########                        HBond_Donors:                   2
##########                         Heavy_Atoms:                  26
##########                          Grid_Score:          -28.856876
##########                     Grid_vdw_energy:          -29.804161
##########                      Grid_es_energy:            0.947286
##########           Internal_energy_repulsive:            8.752170

@<TRIPOS>MOLECULE
ZINC000821442454
 45 47 1 0 0
SMALL
USER_CHARGES


@<TRIPOS>ATOM
      1 C1          1.3548   -0.5178   62.6970 C.3     1  ZINC000821442454   -0.1500
      2 C2          1.2527    0.4495   61.5160 C.3     1  ZINC000821442454   -0.6300
      3 S3         -0.4663    0.9986   61.3309 S.o2    1  ZINC000821442454    2.6000
      4 O4         -1.2902   -0.0774   60.9037 O.2     1  ZINC000821442454   -0.9500
      5 O5         -0.8466    1.8235   62.4237 O.2     1  ZINC000821442454   -0.9500
      6 N6         -0.4339    2.0280   60.0341 N.am    1  ZINC000821442454   -1.0000
      7 C7          0.3989    3.2382   60.0597 C.3     1  ZINC000821442454    0.1100
      8 C8         -0.4806    4.4489   59.7318 C.3     1  ZINC000821442454   -0.1300
      9 C9         -1.1983    4.2078   58.4019 C.3     1  ZINC000821442454   -0.1100
     10 C10        -2.0980    2.9756   58.5218 C.3     1  ZINC000821442454   -0.1200
     11 H11        -2.8196    3.1286   59.3243 H       1  ZINC000821442454    0.1100
     12 C12        -2.8294    2.7583   57.2222 C.2     1  ZINC000821442454    0.5300
     13 O13        -3.1220    1.6348   56.8715 O.2     1  ZINC000821442454   -0.5100
     14 N14        -3.1584    3.8126   56.4497 N.am    1  ZINC000821442454   -0.6700
     15 C15        -3.8373    3.6110   55.2436 C.ar    1  ZINC000821442454    0.1800
     16 C16        -5.2086    3.3895   55.2480 C.ar    1  ZINC000821442454   -0.1200
     17 C17        -5.8803    3.1911   54.0599 C.ar    1  ZINC000821442454   -0.0500
     18 C18        -5.1828    3.2127   52.8539 C.ar    1  ZINC000821442454   -0.0300
     19 C19        -5.9041    2.9997   51.5744 C.2     1  ZINC000821442454    0.2200
     20 N20        -7.0153    2.3116   51.4020 N.2     1  ZINC000821442454   -0.2900
     21 N21        -7.3211    2.3635   50.1511 N.pl3   1  ZINC000821442454   -0.2200
     22 N22        -6.4394    3.0626   49.5258 N.2     1  ZINC000821442454   -0.0400
     23 N23        -5.5557    3.4745   50.3700 N.2     1  ZINC000821442454   -0.2700
     24 C24        -3.8068    3.4351   52.8506 C.ar    1  ZINC000821442454   -0.0500
     25 C25        -3.1394    3.6384   54.0407 C.ar    1  ZINC000821442454   -0.0800
     26 Cl26       -1.4256    3.9154   54.0380 Cl      1  ZINC000821442454   -0.0500
     27 C27        -1.2325    1.7453   58.8337 C.3     1  ZINC000821442454    0.1400
     28 H28         1.0343   -0.0134   63.6086 H       1  ZINC000821442454    0.0700
     29 H29         0.7149   -1.3814   62.5156 H       1  ZINC000821442454    0.0700
     30 H30         2.3876   -0.8478   62.8082 H       1  ZINC000821442454    0.0800
     31 H31         1.8925    1.3131   61.6975 H       1  ZINC000821442454    0.1300
     32 H32         1.5731   -0.0551   60.6044 H       1  ZINC000821442454    0.1300
     33 H33         0.8348    3.3610   61.0512 H       1  ZINC000821442454    0.1000
     34 H34         1.1925    3.1515   59.3176 H       1  ZINC000821442454    0.0700
     35 H35        -1.2175    4.5881   60.5229 H       1  ZINC000821442454    0.0700
     36 H36         0.1420    5.3401   59.6529 H       1  ZINC000821442454    0.0800
     37 H37        -1.8059    5.0782   58.1540 H       1  ZINC000821442454    0.0700
     38 H38        -0.4612    4.0441   57.6159 H       1  ZINC000821442454    0.0800
     39 H39        -2.9244    4.7112   56.7303 H       1  ZINC000821442454    0.4200
     40 H40        -5.7493    3.3724   56.1828 H       1  ZINC000821442454    0.1600
     41 H41        -6.9464    3.0186   54.0643 H       1  ZINC000821442454    0.1500
     42 H42        -8.0943    1.9418   49.7446 H       1  ZINC000821442454    0.4800
     43 H43        -3.2643    3.4522   51.9169 H       1  ZINC000821442454    0.1500
     44 H44        -0.5737    1.5385   57.9903 H       1  ZINC000821442454    0.0800
     45 H45        -1.8746    0.8840   59.0181 H       1  ZINC000821442454    0.1000
@<TRIPOS>BOND
     1     1     2    1
     2     1    28    1
     3     1    29    1
     4     1    30    1
     5     2     3    1
     6     2    31    1
     7     2    32    1
     8     3     4    2
     9     3     5    2
    10     3     6   am
    11     6    27    1
    12     6     7    1
    13     7     8    1
    14     7    33    1
    15     7    34    1
    16     8     9    1
    17     8    35    1
    18     8    36    1
    19     9    10    1
    20     9    37    1
    21     9    38    1
    22    10    11    1
    23    10    12    1
    24    10    27    1
    25    12    13    2
    26    12    14   am
    27    14    15    1
    28    14    39    1
    29    15    25   ar
    30    15    16   ar
    31    16    17   ar
    32    16    40    1
    33    17    18   ar
    34    17    41    1
    35    18    19    1
    36    18    24   ar
    37    19    23    1
    38    19    20    2
    39    20    21    1
    40    21    22    1
    41    21    42    1
    42    22    23    2
    43    24    25   ar
    44    24    43    1
    45    25    26    1
    46    27    44    1
    47    27    45    1
@<TRIPOS>SUBSTRUCTURE
     1 ZINC000821442454        1 TEMP              0 ****  ****    0 ROOT


##########                                Name:    ZINC000481050680
##########                DOCK_Rotatable_Bonds:                   7
##########                         Heavy_Atoms:                  29
##########                    Molecular_Weight:              412.46
##########                DOCK_Rotatable_Bonds:                   7
##########                       Formal_Charge:          -0.0199997
##########                     HBond_Acceptors:                   7
##########                        HBond_Donors:                   1
##########                         Heavy_Atoms:                  29
##########                          Grid_Score:          -28.837315
##########                     Grid_vdw_energy:          -28.395769
##########                      Grid_es_energy:           -0.441545
##########           Internal_energy_repulsive:           12.629587

@<TRIPOS>MOLECULE
ZINC000481050680
 47 49 1 0 0
SMALL
USER_CHARGES


@<TRIPOS>ATOM
      1 N1         -6.9191    1.0552   51.0129 N.1     1  ZINC000481050680   -0.3900
      2 C2         -7.4808    1.1172   51.9983 C.1     1  ZINC000481050680    0.2500
      3 C3         -8.1889    1.1953   53.2406 C.ar    1  ZINC000481050680    0.0200
      4 C4         -9.2445    0.3198   53.5020 C.ar    1  ZINC000481050680   -0.0800
      5 C5         -9.9230    0.3991   54.7008 C.ar    1  ZINC000481050680   -0.0800
      6 C6         -9.5603    1.3434   55.6438 C.ar    1  ZINC000481050680   -0.1000
      7 C7        -10.3063    1.4237   56.9507 C.3     1  ZINC000481050680   -0.5900
      8 S8         -9.2800    0.7307   58.2763 S.o2    1  ZINC000481050680    2.6000
      9 O9         -8.0102    0.3406   57.7718 O.2     1  ZINC000481050680   -0.9300
     10 O10        -9.3901    1.5170   59.4549 O.2     1  ZINC000481050680   -0.9400
     11 N11       -10.0203   -0.6980   58.6680 N.am    1  ZINC000481050680   -1.1100
     12 C12       -11.4042   -0.6982   59.1487 C.3     1  ZINC000481050680    0.2100
     13 H13       -11.7372    0.3289   59.2977 H       1  ZINC000481050680    0.1000
     14 C14       -11.4832   -1.4573   60.4748 C.3     1  ZINC000481050680   -0.0800
     15 C15       -10.7075   -0.7099   61.5285 C.ar    1  ZINC000481050680   -0.0900
     16 C16        -9.3588   -0.9591   61.7008 C.ar    1  ZINC000481050680   -0.1200
     17 C17        -8.6471   -0.2735   62.6674 C.ar    1  ZINC000481050680   -0.1200
     18 C18        -9.2841    0.6617   63.4615 C.ar    1  ZINC000481050680   -0.1200
     19 C19       -10.6327    0.9114   63.2888 C.ar    1  ZINC000481050680   -0.1200
     20 C20       -11.3434    0.2289   62.3192 C.ar    1  ZINC000481050680   -0.1200
     21 C21       -12.2893   -1.3707   58.1313 C.ar    1  ZINC000481050680   -0.1300
     22 C22       -13.4379   -0.7415   57.6909 C.ar    1  ZINC000481050680   -0.0700
     23 C23       -14.2502   -1.3583   56.7574 C.ar    1  ZINC000481050680   -0.1300
     24 C24       -13.9146   -2.6051   56.2640 C.ar    1  ZINC000481050680   -0.0900
     25 C25       -12.7664   -3.2367   56.7035 C.ar    1  ZINC000481050680   -0.1500
     26 C26       -11.9488   -2.6172   57.6332 C.ar    1  ZINC000481050680    0.1100
     27 F27       -10.8262   -3.2335   58.0633 F       1  ZINC000481050680   -0.1400
     28 C28        -8.5132    2.2160   55.3922 C.ar    1  ZINC000481050680    0.1200
     29 F29        -8.1641    3.1356   56.3184 F       1  ZINC000481050680   -0.1200
     30 C30        -7.8227    2.1436   54.1978 C.ar    1  ZINC000481050680   -0.1000
     31 H31        -9.5297   -0.4183   52.7669 H       1  ZINC000481050680    0.1500
     32 H32       -10.7399   -0.2779   54.9031 H       1  ZINC000481050680    0.1500
     33 H33       -10.5350    2.4655   57.1752 H       1  ZINC000481050680    0.1500
     34 H34       -11.2338    0.8563   56.8750 H       1  ZINC000481050680    0.1500
     35 H35        -9.5375   -1.5347   58.5790 H       1  ZINC000481050680    0.4200
     36 H36       -12.5253   -1.5427   60.7829 H       1  ZINC000481050680    0.0900
     37 H37       -11.0588   -2.4533   60.3490 H       1  ZINC000481050680    0.0900
     38 H38        -8.8610   -1.6897   61.0803 H       1  ZINC000481050680    0.1200
     39 H39        -7.5935   -0.4686   62.8024 H       1  ZINC000481050680    0.1200
     40 H40        -8.7283    1.1968   64.2173 H       1  ZINC000481050680    0.1200
     41 H41       -11.1305    1.6418   63.9095 H       1  ZINC000481050680    0.1200
     42 H42       -12.3970    0.4241   62.1843 H       1  ZINC000481050680    0.1200
     43 H43       -13.7015    0.2324   58.0763 H       1  ZINC000481050680    0.1300
     44 H44       -15.1478   -0.8657   56.4137 H       1  ZINC000481050680    0.1300
     45 H45       -14.5501   -3.0862   55.5351 H       1  ZINC000481050680    0.1300
     46 H46       -12.5047   -4.2112   56.3182 H       1  ZINC000481050680    0.1400
     47 H47        -7.0067    2.8233   54.0019 H       1  ZINC000481050680    0.1600
@<TRIPOS>BOND
     1     1     2    3
     2     2     3    1
     3     3    30   ar
     4     3     4   ar
     5     4     5   ar
     6     4    31    1
     7     5     6   ar
     8     5    32    1
     9     6     7    1
    10     6    28   ar
    11     7     8    1
    12     7    33    1
    13     7    34    1
    14     8     9    2
    15     8    10    2
    16     8    11   am
    17    11    12    1
    18    11    35    1
    19    12    13    1
    20    12    14    1
    21    12    21    1
    22    14    15    1
    23    14    36    1
    24    14    37    1
    25    15    20   ar
    26    15    16   ar
    27    16    17   ar
    28    16    38    1
    29    17    18   ar
    30    17    39    1
    31    18    19   ar
    32    18    40    1
    33    19    20   ar
    34    19    41    1
    35    20    42    1
    36    21    26   ar
    37    21    22   ar
    38    22    23   ar
    39    22    43    1
    40    23    24   ar
    41    23    44    1
    42    24    25   ar
    43    24    45    1
    44    25    26   ar
    45    25    46    1
    46    26    27    1
    47    28    29    1
    48    28    30   ar
    49    30    47    1
@<TRIPOS>SUBSTRUCTURE
     1 ZINC000481050680        1 TEMP              0 ****  ****    0 ROOT


##########                                Name:    ZINC000496437542
##########                DOCK_Rotatable_Bonds:                   7
##########                         Heavy_Atoms:                  24
##########                    Molecular_Weight:             338.447
##########                DOCK_Rotatable_Bonds:                   7
##########                       Formal_Charge:           0.0400002
##########                     HBond_Acceptors:                   6
##########                        HBond_Donors:                   1
##########                         Heavy_Atoms:                  24
##########                          Grid_Score:          -28.830416
##########                     Grid_vdw_energy:          -27.906225
##########                      Grid_es_energy:           -0.924191
##########           Internal_energy_repulsive:           15.195109

@<TRIPOS>MOLECULE
ZINC000496437542
 54 55 1 0 0
SMALL
USER_CHARGES


@<TRIPOS>ATOM
      1 C1         -1.0318    4.3005   52.2881 C.3     1  ZINC000496437542   -0.1800
      2 C2         -0.6531    4.3559   50.8066 C.3     1  ZINC000496437542    0.1400
      3 C3         -0.2170    5.7770   50.4446 C.3     1  ZINC000496437542   -0.1800
      4 C4          0.4984    3.3850   50.5381 C.3     1  ZINC000496437542   -0.1400
      5 O5         -1.8004    3.9812   49.9995 O.3     1  ZINC000496437542   -0.3600
      6 C6         -2.4822    2.8838   50.3784 C.2     1  ZINC000496437542    0.6600
      7 O7         -2.0162    1.7797   50.1779 O.2     1  ZINC000496437542   -0.5600
      8 N8         -3.6816    3.0100   50.9800 N.am    1  ZINC000496437542   -0.6000
      9 C9         -4.2662    4.3364   51.2332 C.3     1  ZINC000496437542    0.0800
     10 C10        -5.7033    4.3414   50.6996 C.3     1  ZINC000496437542    0.0500
     11 O11        -6.4100    3.2224   51.2402 O.3     1  ZINC000496437542   -0.3700
     12 C12        -5.8739    1.9527   50.8605 C.3     1  ZINC000496437542    0.0700
     13 H13        -5.8593    1.8740   49.7734 H       1  ZINC000496437542    0.0700
     14 C14        -6.7436    0.8363   51.4420 C.3     1  ZINC000496437542    0.1300
     15 N15        -7.4749    1.3428   52.6059 N.am    1  ZINC000496437542   -0.7200
     16 C16        -8.5677    0.6916   53.0510 C.2     1  ZINC000496437542    0.5600
     17 O17        -8.9460   -0.3174   52.4872 O.2     1  ZINC000496437542   -0.5400
     18 C18        -9.3031    1.2012   54.2187 C.2     1  ZINC000496437542   -0.1900
     19 C19       -10.0139    0.3758   54.9563 C.2     1  ZINC000496437542   -0.0600
     20 C20       -10.7750    0.8897   56.1601 C.3     1  ZINC000496437542   -0.1000
     21 C21        -9.7694    1.2431   57.2581 C.3     1  ZINC000496437542   -0.1100
     22 C22        -9.2458    2.6559   57.0755 C.3     1  ZINC000496437542   -0.1200
     23 C23        -8.3944    2.8388   55.8324 C.3     1  ZINC000496437542   -0.1200
     24 C24        -9.2335    2.6724   54.5697 C.3     1  ZINC000496437542   -0.0800
     25 C25        -4.4482    1.8252   51.3973 C.3     1  ZINC000496437542    0.1000
     26 H26        -1.8522    4.9922   52.4794 H       1  ZINC000496437542    0.0900
     27 H27        -1.3425    3.2881   52.5460 H       1  ZINC000496437542    0.0600
     28 H28        -0.1706    4.5817   52.8940 H       1  ZINC000496437542    0.0700
     29 H29         0.6443    6.0582   51.0505 H       1  ZINC000496437542    0.0700
     30 H30         0.0530    5.8164   49.3892 H       1  ZINC000496437542    0.0600
     31 H31        -1.0373    6.4687   50.6359 H       1  ZINC000496437542    0.0900
     32 H32         0.1877    2.3725   50.7960 H       1  ZINC000496437542    0.0700
     33 H33         0.7683    3.4244   49.4828 H       1  ZINC000496437542    0.0700
     34 H34         1.3597    3.6662   51.1441 H       1  ZINC000496437542    0.0800
     35 H35        -4.2718    4.5367   52.3047 H       1  ZINC000496437542    0.0800
     36 H36        -3.6813    5.0996   50.7197 H       1  ZINC000496437542    0.1000
     37 H37        -6.1997    5.2646   50.9989 H       1  ZINC000496437542    0.1100
     38 H38        -5.6881    4.2714   49.6120 H       1  ZINC000496437542    0.0600
     39 H39        -7.4527    0.4973   50.6866 H       1  ZINC000496437542    0.0900
     40 H40        -6.1101    0.0028   51.7454 H       1  ZINC000496437542    0.0800
     41 H41        -7.1726    2.1469   53.0564 H       1  ZINC000496437542    0.4000
     42 H42       -10.0550   -0.6731   54.7019 H       1  ZINC000496437542    0.1300
     43 H43       -11.3415    1.7787   55.8826 H       1  ZINC000496437542    0.0800
     44 H44       -11.4544    0.1174   56.5206 H       1  ZINC000496437542    0.0800
     45 H45       -10.2570    1.1641   58.2298 H       1  ZINC000496437542    0.0700
     46 H46        -8.9346    0.5433   57.2186 H       1  ZINC000496437542    0.0700
     47 H47       -10.0950    3.3369   57.0188 H       1  ZINC000496437542    0.0600
     48 H48        -8.6489    2.9212   57.9480 H       1  ZINC000496437542    0.0600
     49 H49        -7.9546    3.8361   55.8425 H       1  ZINC000496437542    0.0700
     50 H50        -7.5969    2.0959   55.8315 H       1  ZINC000496437542    0.0600
     51 H51        -8.7730    3.2225   53.7491 H       1  ZINC000496437542    0.0700
     52 H52       -10.2407    3.0496   54.7472 H       1  ZINC000496437542    0.0800
     53 H53        -3.9835    0.9250   50.9949 H       1  ZINC000496437542    0.1100
     54 H54        -4.4690    1.7730   52.4858 H       1  ZINC000496437542    0.0900
@<TRIPOS>BOND
     1     1     2    1
     2     1    26    1
     3     1    27    1
     4     1    28    1
     5     2     3    1
     6     2     4    1
     7     2     5    1
     8     3    29    1
     9     3    30    1
    10     3    31    1
    11     4    32    1
    12     4    33    1
    13     4    34    1
    14     5     6    1
    15     6     7    2
    16     6     8   am
    17     8    25    1
    18     8     9    1
    19     9    10    1
    20     9    35    1
    21     9    36    1
    22    10    11    1
    23    10    37    1
    24    10    38    1
    25    11    12    1
    26    12    13    1
    27    12    14    1
    28    12    25    1
    29    14    15    1
    30    14    39    1
    31    14    40    1
    32    15    16   am
    33    15    41    1
    34    16    17    2
    35    16    18    1
    36    18    24    1
    37    18    19    2
    38    19    20    1
    39    19    42    1
    40    20    21    1
    41    20    43    1
    42    20    44    1
    43    21    22    1
    44    21    45    1
    45    21    46    1
    46    22    23    1
    47    22    47    1
    48    22    48    1
    49    23    24    1
    50    23    49    1
    51    23    50    1
    52    24    51    1
    53    24    52    1
    54    25    53    1
    55    25    54    1
@<TRIPOS>SUBSTRUCTURE
     1 ZINC000496437542        1 TEMP              0 ****  ****    0 ROOT


##########                                Name:    ZINC001009984555
##########                DOCK_Rotatable_Bonds:                   7
##########                         Heavy_Atoms:                  23
##########                    Molecular_Weight:             338.446
##########                DOCK_Rotatable_Bonds:                   7
##########                       Formal_Charge:           0.0400002
##########                     HBond_Acceptors:                   6
##########                        HBond_Donors:                   1
##########                         Heavy_Atoms:                  23
##########                          Grid_Score:          -28.805285
##########                     Grid_vdw_energy:          -27.844358
##########                      Grid_es_energy:           -0.960926
##########           Internal_energy_repulsive:           15.162320

@<TRIPOS>MOLECULE
ZINC001009984555
 46 47 1 0 0
SMALL
USER_CHARGES


@<TRIPOS>ATOM
      1 C1         -3.5852    2.8738   49.2594 C.3     1  ZINC001009984555   -0.1400
      2 S2         -2.1888    3.1378   50.3868 S.3     1  ZINC001009984555   -0.1800
      3 C3         -2.8823    2.6999   52.0048 C.3     1  ZINC001009984555   -0.1300
      4 C4         -4.0896    3.5580   52.2828 C.2     1  ZINC001009984555    0.5500
      5 O5         -3.9469    4.7125   52.6259 O.2     1  ZINC001009984555   -0.5100
      6 N6         -5.3278    3.0424   52.1502 N.am    1  ZINC001009984555   -0.6100
      7 C7         -5.6442    1.6593   51.7502 C.3     1  ZINC001009984555    0.1000
      8 C8         -7.0549    1.3913   52.3314 C.3     1  ZINC001009984555   -0.1100
      9 H9         -6.9989    1.1292   53.3879 H       1  ZINC001009984555    0.1000
     10 C10        -7.7776    0.3018   51.5366 C.3     1  ZINC001009984555    0.1300
     11 N11        -8.5889   -0.5100   52.4472 N.am    1  ZINC001009984555   -0.7300
     12 C12        -9.8980   -0.2341   52.6109 C.2     1  ZINC001009984555    0.5600
     13 O13       -10.4057    0.6873   52.0022 O.2     1  ZINC001009984555   -0.5200
     14 C14       -10.7164   -1.0523   53.5311 C.ar    1  ZINC001009984555   -0.1200
     15 C15       -11.2194   -2.2852   53.1131 C.ar    1  ZINC001009984555   -0.0900
     16 C16       -11.9828   -3.0449   53.9758 C.ar    1  ZINC001009984555   -0.1000
     17 C17       -12.2509   -2.5876   55.2531 C.ar    1  ZINC001009984555   -0.1200
     18 C18       -11.7550   -1.3644   55.6756 C.ar    1  ZINC001009984555    0.0900
     19 F19       -12.0208   -0.9238   56.9248 F       1  ZINC001009984555   -0.1300
     20 C20       -10.9842   -0.5975   54.8231 C.ar    1  ZINC001009984555   -0.0500
     21 C21       -10.4449    0.7325   55.2827 C.3     1  ZINC001009984555   -0.1200
     22 C22        -7.7394    2.7700   52.1360 C.3     1  ZINC001009984555   -0.1200
     23 C23        -6.5864    3.7645   52.3867 C.3     1  ZINC001009984555    0.1400
     24 H24        -6.6627    4.6028   51.6942 H       1  ZINC001009984555    0.0800
     25 C25        -6.6429    4.2740   53.8282 C.3     1  ZINC001009984555   -0.1700
     26 H26        -4.4133    3.5204   49.5491 H       1  ZINC001009984555    0.0800
     27 H27        -3.2791    3.1100   48.2403 H       1  ZINC001009984555    0.1100
     28 H28        -3.9022    1.8322   49.3113 H       1  ZINC001009984555    0.0800
     29 H29        -3.1755    1.6501   52.0024 H       1  ZINC001009984555    0.1100
     30 H30        -2.1326    2.8661   52.7784 H       1  ZINC001009984555    0.1100
     31 H31        -5.6588    1.5724   50.6638 H       1  ZINC001009984555    0.0800
     32 H32        -4.9199    0.9657   52.1774 H       1  ZINC001009984555    0.0800
     33 H33        -8.4228    0.7644   50.7896 H       1  ZINC001009984555    0.0800
     34 H34        -7.0438   -0.3329   51.0400 H       1  ZINC001009984555    0.0800
     35 H35        -8.1840   -1.2461   52.9320 H       1  ZINC001009984555    0.4000
     36 H36       -11.0120   -2.6439   52.1157 H       1  ZINC001009984555    0.1300
     37 H37       -12.3721   -3.9990   53.6524 H       1  ZINC001009984555    0.1400
     38 H38       -12.8495   -3.1860   55.9240 H       1  ZINC001009984555    0.1400
     39 H39        -9.4193    0.6083   55.6301 H       1  ZINC001009984555    0.0800
     40 H40       -10.4644    1.4389   54.4528 H       1  ZINC001009984555    0.1000
     41 H41       -11.0610    1.1124   56.0977 H       1  ZINC001009984555    0.0600
     42 H42        -8.1249    2.8688   51.1212 H       1  ZINC001009984555    0.0900
     43 H43        -8.5348    2.9128   52.8675 H       1  ZINC001009984555    0.0900
     44 H44        -6.5480    3.4327   54.5149 H       1  ZINC001009984555    0.0600
     45 H45        -5.8262    4.9754   53.9980 H       1  ZINC001009984555    0.0700
     46 H46        -7.5949    4.7765   53.9989 H       1  ZINC001009984555    0.0700
@<TRIPOS>BOND
     1     1     2    1
     2     1    26    1
     3     1    27    1
     4     1    28    1
     5     2     3    1
     6     3     4    1
     7     3    29    1
     8     3    30    1
     9     4     5    2
    10     4     6   am
    11     6    23    1
    12     6     7    1
    13     7     8    1
    14     7    31    1
    15     7    32    1
    16     8     9    1
    17     8    10    1
    18     8    22    1
    19    10    11    1
    20    10    33    1
    21    10    34    1
    22    11    12   am
    23    11    35    1
    24    12    13    2
    25    12    14    1
    26    14    20   ar
    27    14    15   ar
    28    15    16   ar
    29    15    36    1
    30    16    17   ar
    31    16    37    1
    32    17    18   ar
    33    17    38    1
    34    18    19    1
    35    18    20   ar
    36    20    21    1
    37    21    39    1
    38    21    40    1
    39    21    41    1
    40    22    23    1
    41    22    42    1
    42    22    43    1
    43    23    24    1
    44    23    25    1
    45    25    44    1
    46    25    45    1
    47    25    46    1
@<TRIPOS>SUBSTRUCTURE
     1 ZINC001009984555        1 TEMP              0 ****  ****    0 ROOT


##########                                Name:    ZINC000469435497
##########                DOCK_Rotatable_Bonds:                   6
##########                         Heavy_Atoms:                  27
##########                    Molecular_Weight:             364.444
##########                DOCK_Rotatable_Bonds:                   6
##########                       Formal_Charge:           0.0300001
##########                     HBond_Acceptors:                   5
##########                        HBond_Donors:                   2
##########                         Heavy_Atoms:                  27
##########                          Grid_Score:          -28.795290
##########                     Grid_vdw_energy:          -27.880043
##########                      Grid_es_energy:           -0.915247
##########           Internal_energy_repulsive:            4.736715

@<TRIPOS>MOLECULE
ZINC000469435497
 51 54 1 0 0
SMALL
USER_CHARGES


@<TRIPOS>ATOM
      1 C1         -9.0869   -0.3749   62.2751 C.3     1  ZINC000469435497   -0.1600
      2 C2        -10.3192    0.3939   61.7944 C.3     1  ZINC000469435497    0.1000
      3 C3        -10.6465    1.5420   62.7513 C.3     1  ZINC000469435497   -0.1400
      4 C4        -10.1106    0.9182   60.3540 C.3     1  ZINC000469435497   -0.1000
      5 C5        -10.7120   -0.1990   59.5234 C.ar    1  ZINC000469435497   -0.1500
      6 C6        -10.6178   -0.5074   58.1851 C.ar    1  ZINC000469435497   -0.0700
      7 C7        -11.2822   -1.6191   57.6814 C.ar    1  ZINC000469435497    0.1100
      8 N8        -11.1899   -1.9385   56.3203 N.am    1  ZINC000469435497   -0.6600
      9 C9        -11.9799   -1.3118   55.4262 C.2     1  ZINC000469435497    0.5100
     10 O10       -12.7709   -0.4716   55.7997 O.2     1  ZINC000469435497   -0.5200
     11 C11       -11.8807   -1.6552   53.9621 C.3     1  ZINC000469435497    0.1000
     12 N12       -10.5962   -1.1864   53.4365 N.am    1  ZINC000469435497   -0.7200
     13 C13       -10.4738    0.0773   52.9844 C.2     1  ZINC000469435497    0.5700
     14 O14       -11.4297    0.8276   53.0113 O.2     1  ZINC000469435497   -0.5300
     15 C15        -9.1769    0.5509   52.4555 C.ar    1  ZINC000469435497   -0.1400
     16 C16        -8.1031   -0.3323   52.3362 C.ar    1  ZINC000469435497   -0.0800
     17 C17        -6.8976    0.1181   51.8422 C.ar    1  ZINC000469435497   -0.1100
     18 C18        -6.7455    1.4428   51.4633 C.ar    1  ZINC000469435497   -0.0700
     19 C19        -5.5401    2.1670   50.9016 C.3     1  ZINC000469435497   -0.0900
     20 C20        -6.1009    3.4635   50.2800 C.3     1  ZINC000469435497   -0.1200
     21 C21        -7.3852    3.6977   51.1032 C.3     1  ZINC000469435497   -0.0800
     22 C22        -7.8068    2.3238   51.5793 C.ar    1  ZINC000469435497   -0.1100
     23 C23        -9.0215    1.8816   52.0678 C.ar    1  ZINC000469435497   -0.0400
     24 C24       -12.0378   -2.4117   58.5348 C.ar    1  ZINC000469435497   -0.1000
     25 C25       -12.1328   -2.0971   59.8741 C.ar    1  ZINC000469435497   -0.1200
     26 C26       -11.4715   -0.9824   60.3833 C.ar    1  ZINC000469435497    0.1000
     27 O27       -11.4460   -0.4877   61.6523 O.3     1  ZINC000469435497   -0.3000
     28 H28        -8.8528   -1.1674   61.5642 H       1  ZINC000469435497    0.0600
     29 H29        -8.2399    0.3070   62.3508 H       1  ZINC000469435497    0.0800
     30 H30        -9.2897   -0.8121   63.2528 H       1  ZINC000469435497    0.0700
     31 H31        -9.8051    2.2338   62.7900 H       1  ZINC000469435497    0.0800
     32 H32       -11.5334    2.0680   62.3978 H       1  ZINC000469435497    0.0700
     33 H33       -10.8343    1.1421   63.7477 H       1  ZINC000469435497    0.0700
     34 H34       -10.6493    1.8529   60.1980 H       1  ZINC000469435497    0.0900
     35 H35        -9.0501    1.0401   60.1336 H       1  ZINC000469435497    0.0900
     36 H36       -10.0285    0.1142   57.5273 H       1  ZINC000469435497    0.1400
     37 H37       -10.5573   -2.6103   56.0215 H       1  ZINC000469435497    0.4200
     38 H38       -11.9522   -2.7355   53.8367 H       1  ZINC000469435497    0.1100
     39 H39       -12.6934   -1.1719   53.4197 H       1  ZINC000469435497    0.1100
     40 H40        -9.8336   -1.7856   53.4139 H       1  ZINC000469435497    0.4100
     41 H41        -8.2161   -1.3654   52.6302 H       1  ZINC000469435497    0.1300
     42 H42        -6.0664   -0.5653   51.7501 H       1  ZINC000469435497    0.1300
     43 H43        -4.8357    2.4037   51.6990 H       1  ZINC000469435497    0.0900
     44 H44        -5.0564    1.5594   50.1367 H       1  ZINC000469435497    0.0800
     45 H45        -5.4015    4.2894   50.4098 H       1  ZINC000469435497    0.0800
     46 H46        -6.3375    3.3169   49.2262 H       1  ZINC000469435497    0.0700
     47 H47        -7.1758    4.3452   51.9545 H       1  ZINC000469435497    0.0800
     48 H48        -8.1617    4.1354   50.4760 H       1  ZINC000469435497    0.0800
     49 H49        -9.8507    2.5684   52.1527 H       1  ZINC000469435497    0.1400
     50 H50       -12.5536   -3.2782   58.1481 H       1  ZINC000469435497    0.1400
     51 H51       -12.7229   -2.7184   60.5315 H       1  ZINC000469435497    0.1300
@<TRIPOS>BOND
     1     1     2    1
     2     1    28    1
     3     1    29    1
     4     1    30    1
     5     2    27    1
     6     2     3    1
     7     2     4    1
     8     3    31    1
     9     3    32    1
    10     3    33    1
    11     4     5    1
    12     4    34    1
    13     4    35    1
    14     5    26   ar
    15     5     6   ar
    16     6     7   ar
    17     6    36    1
    18     7     8    1
    19     7    24   ar
    20     8     9   am
    21     8    37    1
    22     9    10    2
    23     9    11    1
    24    11    12    1
    25    11    38    1
    26    11    39    1
    27    12    13   am
    28    12    40    1
    29    13    14    2
    30    13    15    1
    31    15    23   ar
    32    15    16   ar
    33    16    17   ar
    34    16    41    1
    35    17    18   ar
    36    17    42    1
    37    18    22   ar
    38    18    19    1
    39    19    20    1
    40    19    43    1
    41    19    44    1
    42    20    21    1
    43    20    45    1
    44    20    46    1
    45    21    22    1
    46    21    47    1
    47    21    48    1
    48    22    23   ar
    49    23    49    1
    50    24    25   ar
    51    24    50    1
    52    25    26   ar
    53    25    51    1
    54    26    27    1
@<TRIPOS>SUBSTRUCTURE
     1 ZINC000469435497        1 TEMP              0 ****  ****    0 ROOT


##########                                Name:    ZINC001058079801
##########                DOCK_Rotatable_Bonds:                   7
##########                         Heavy_Atoms:                  24
##########                    Molecular_Weight:             349.457
##########                DOCK_Rotatable_Bonds:                   7
##########                       Formal_Charge:           0.0200001
##########                     HBond_Acceptors:                   8
##########                        HBond_Donors:                   0
##########                         Heavy_Atoms:                  24
##########                          Grid_Score:          -28.766029
##########                     Grid_vdw_energy:          -27.742010
##########                      Grid_es_energy:           -1.024019
##########           Internal_energy_repulsive:           15.176440

@<TRIPOS>MOLECULE
ZINC001058079801
 47 49 1 0 0
SMALL
USER_CHARGES


@<TRIPOS>ATOM
      1 C1         -5.8708    1.7246   51.4481 C.3     1  ZINC001058079801   -0.1500
      2 C2         -6.9898    0.6849   51.5373 C.3     1  ZINC001058079801   -0.1200
      3 C3         -8.2058    1.3028   52.2305 C.3     1  ZINC001058079801   -0.0300
      4 C4         -9.2123    0.2234   52.5356 C.2     1  ZINC001058079801    0.2900
      5 N5         -9.2280   -0.8899   51.8619 N.2     1  ZINC001058079801   -0.4800
      6 S6        -10.4969   -1.8095   52.5195 S.3     1  ZINC001058079801    0.1900
      7 C7        -10.9399   -0.6196   53.6842 C.2     1  ZINC001058079801    0.2700
      8 N8        -11.9556   -0.6944   54.6200 N.3     1  ZINC001058079801   -0.4300
      9 C9        -11.5618   -1.5345   55.7583 C.3     1  ZINC001058079801    0.0700
     10 C10       -12.6468   -1.4769   56.8359 C.3     1  ZINC001058079801   -0.1300
     11 C11       -13.9710   -1.9712   56.2469 C.3     1  ZINC001058079801    0.1300
     12 N12       -15.0266   -1.8636   57.2571 N.am    1  ZINC001058079801   -0.6100
     13 C13       -15.5927   -0.5537   57.5885 C.3     1  ZINC001058079801    0.0700
     14 C14       -15.4770   -2.9699   57.8815 C.2     1  ZINC001058079801    0.5200
     15 O15       -15.0095   -4.0545   57.6060 O.2     1  ZINC001058079801   -0.5300
     16 C16       -16.5616   -2.8591   58.9218 C.3     1  ZINC001058079801   -0.0600
     17 C17       -15.9749   -2.3292   60.2048 C.2     1  ZINC001058079801   -0.1900
     18 C18       -14.7138   -2.4875   60.6731 C.2     1  ZINC001058079801   -0.0400
     19 O19       -14.6604   -1.8400   61.8455 O.3     1  ZINC001058079801    0.1000
     20 N20       -15.7210   -1.3278   62.1193 N.2     1  ZINC001058079801   -0.3600
     21 C21       -16.6115   -1.5464   61.1952 C.2     1  ZINC001058079801    0.0000
     22 C22       -14.3340   -1.1101   55.0339 C.3     1  ZINC001058079801   -0.1200
     23 C23       -13.1999   -1.1782   54.0084 C.3     1  ZINC001058079801    0.0400
     24 N24       -10.0977    0.3738   53.4933 N.2     1  ZINC001058079801   -0.5300
     25 H25        -5.0045    1.2845   50.9542 H       1  ZINC001058079801    0.0600
     26 H26        -6.2183    2.5840   50.8747 H       1  ZINC001058079801    0.0600
     27 H27        -5.5926    2.0460   52.4518 H       1  ZINC001058079801    0.0600
     28 H28        -7.2681    0.3636   50.5335 H       1  ZINC001058079801    0.0700
     29 H29        -6.6423   -0.1745   52.1106 H       1  ZINC001058079801    0.0700
     30 H30        -7.8915    1.7794   53.1590 H       1  ZINC001058079801    0.1000
     31 H31        -8.6585    2.0469   51.5752 H       1  ZINC001058079801    0.0900
     32 H32       -11.4365   -2.5642   55.4235 H       1  ZINC001058079801    0.0600
     33 H33       -10.6210   -1.1698   56.1703 H       1  ZINC001058079801    0.1000
     34 H34       -12.3615   -2.1129   57.6739 H       1  ZINC001058079801    0.0800
     35 H35       -12.7630   -0.4496   57.1810 H       1  ZINC001058079801    0.0800
     36 H36       -13.8667   -3.0113   55.9383 H       1  ZINC001058079801    0.1000
     37 H37       -16.4449   -0.3515   56.9398 H       1  ZINC001058079801    0.0600
     38 H38       -15.9190   -0.5515   58.6285 H       1  ZINC001058079801    0.0800
     39 H39       -14.8351    0.2166   57.4437 H       1  ZINC001058079801    0.0800
     40 H40       -17.3361   -2.1785   58.5681 H       1  ZINC001058079801    0.1100
     41 H41       -16.9961   -3.8427   59.1000 H       1  ZINC001058079801    0.1100
     42 H42       -13.9101   -3.0286   60.1961 H       1  ZINC001058079801    0.2200
     43 H43       -17.6356   -1.2036   61.1896 H       1  ZINC001058079801    0.1900
     44 H44       -15.2540   -1.4839   54.5844 H       1  ZINC001058079801    0.0900
     45 H45       -14.4766   -0.0769   55.3505 H       1  ZINC001058079801    0.0800
     46 H46       -13.4490   -0.5548   53.1496 H       1  ZINC001058079801    0.1000
     47 H47       -13.0671   -2.2096   53.6819 H       1  ZINC001058079801    0.0700
@<TRIPOS>BOND
     1     1     2    1
     2     1    25    1
     3     1    26    1
     4     1    27    1
     5     2     3    1
     6     2    28    1
     7     2    29    1
     8     3     4    1
     9     3    30    1
    10     3    31    1
    11     4    24    1
    12     4     5    2
    13     5     6    1
    14     6     7    1
    15     7     8    1
    16     7    24    2
    17     8    23    1
    18     8     9    1
    19     9    10    1
    20     9    32    1
    21     9    33    1
    22    10    11    1
    23    10    34    1
    24    10    35    1
    25    11    12    1
    26    11    22    1
    27    11    36    1
    28    12    13    1
    29    12    14   am
    30    13    37    1
    31    13    38    1
    32    13    39    1
    33    14    15    2
    34    14    16    1
    35    16    17    1
    36    16    40    1
    37    16    41    1
    38    17    21    1
    39    17    18    2
    40    18    19    1
    41    18    42    1
    42    19    20    1
    43    20    21    2
    44    21    43    1
    45    22    23    1
    46    22    44    1
    47    22    45    1
    48    23    46    1
    49    23    47    1
@<TRIPOS>SUBSTRUCTURE
     1 ZINC001058079801        1 TEMP              0 ****  ****    0 ROOT


##########                                Name:    ZINC000937331732
##########                DOCK_Rotatable_Bonds:                   6
##########                         Heavy_Atoms:                  24
##########                    Molecular_Weight:              333.35
##########                DOCK_Rotatable_Bonds:                   6
##########                       Formal_Charge:          -0.0299999
##########                     HBond_Acceptors:                  10
##########                        HBond_Donors:                   1
##########                         Heavy_Atoms:                  24
##########                          Grid_Score:          -28.748827
##########                     Grid_vdw_energy:          -28.554525
##########                      Grid_es_energy:           -0.194302
##########           Internal_energy_repulsive:           22.294998

@<TRIPOS>MOLECULE
ZINC000937331732
 43 45 1 0 0
SMALL
USER_CHARGES


@<TRIPOS>ATOM
      1 C1         -7.3333    1.3308   50.9198 C.3     1  ZINC000937331732    0.0600
      2 N2         -7.9180    2.5162   51.5517 N.am    1  ZINC000937331732   -0.6100
      3 C3         -7.5378    3.7472   51.1564 C.2     1  ZINC000937331732    0.5000
      4 O4         -8.0229    4.7286   51.6784 O.2     1  ZINC000937331732   -0.5200
      5 C5         -6.5098    3.9044   50.0657 C.3     1  ZINC000937331732    0.1500
      6 N6         -5.1902    3.5305   50.5807 N.am    1  ZINC000937331732   -0.4400
      7 N7         -4.7368    3.6890   51.8975 N.2     1  ZINC000937331732   -0.2800
      8 C8         -3.5241    3.2425   51.9625 C.2     1  ZINC000937331732    0.2600
      9 N9         -3.1518    2.7879   50.7209 N.am    1  ZINC000937331732   -0.5600
     10 C10        -1.8531    2.2049   50.3749 C.3     1  ZINC000937331732    0.1000
     11 C11        -4.1878    2.9643   49.8765 C.2     1  ZINC000937331732    0.6500
     12 O12        -4.2120    2.6735   48.6939 O.2     1  ZINC000937331732   -0.5500
     13 C13        -8.9161    2.3633   52.6132 C.3     1  ZINC000937331732    0.1300
     14 H14        -9.8502    2.8517   52.3355 H       1  ZINC000937331732    0.1200
     15 C15        -9.1541    0.8634   52.9311 C.3     1  ZINC000937331732   -0.1500
     16 C16        -9.6298    0.9294   54.4039 C.3     1  ZINC000937331732    0.1000
     17 N17        -8.8266    2.0057   55.0120 N.am    1  ZINC000937331732   -0.6000
     18 C18        -8.5464    2.1310   56.3243 C.2     1  ZINC000937331732    0.6200
     19 O19        -7.8718    3.0640   56.7157 O.2     1  ZINC000937331732   -0.5400
     20 C20        -9.0578    1.1369   57.2854 C.2     1  ZINC000937331732    0.1400
     21 N21        -8.4065    0.6664   58.3278 N.2     1  ZINC000937331732   -0.4400
     22 C22        -9.1796   -0.2102   58.9647 C.2     1  ZINC000937331732   -0.0300
     23 C23       -10.3598   -0.2978   58.3036 C.2     1  ZINC000937331732   -0.0200
     24 N24       -10.2915    0.5502   57.2502 N.pl3   1  ZINC000937331732   -0.5200
     25 C25        -8.3829    2.9236   53.9486 C.3     1  ZINC000937331732    0.1000
     26 H26        -6.4392    1.0313   51.4666 H       1  ZINC000937331732    0.0700
     27 H27        -8.0579    0.5165   50.9343 H       1  ZINC000937331732    0.0800
     28 H28        -7.0678    1.5625   49.8883 H       1  ZINC000937331732    0.0800
     29 H29        -6.7687    3.2587   49.2266 H       1  ZINC000937331732    0.1300
     30 H30        -6.4891    4.9421   49.7327 H       1  ZINC000937331732    0.1300
     31 H31        -2.9056    3.2297   52.8478 H       1  ZINC000937331732    0.2300
     32 H32        -1.2166    2.1847   51.2595 H       1  ZINC000937331732    0.1000
     33 H33        -1.9973    1.1886   50.0079 H       1  ZINC000937331732    0.0800
     34 H34        -1.3792    2.8073   49.6000 H       1  ZINC000937331732    0.0800
     35 H35        -9.9293    0.4461   52.2884 H       1  ZINC000937331732    0.0900
     36 H36        -8.2286    0.2941   52.8445 H       1  ZINC000937331732    0.0800
     37 H37       -10.6906    1.1757   54.4492 H       1  ZINC000937331732    0.0800
     38 H38        -9.4376   -0.0181   54.9073 H       1  ZINC000937331732    0.1100
     39 H39        -8.9121   -0.7582   59.8560 H       1  ZINC000937331732    0.1800
     40 H40       -11.1987   -0.9238   58.5695 H       1  ZINC000937331732    0.1900
     41 H41       -10.9857    0.7073   56.5911 H       1  ZINC000937331732    0.4300
     42 H42        -7.2939    2.9628   53.9232 H       1  ZINC000937331732    0.0800
     43 H43        -8.7877    3.9200   54.1263 H       1  ZINC000937331732    0.0800
@<TRIPOS>BOND
     1     1     2    1
     2     1    26    1
     3     1    27    1
     4     1    28    1
     5     2     3   am
     6     2    13    1
     7     3     4    2
     8     3     5    1
     9     5     6    1
    10     5    29    1
    11     5    30    1
    12     6    11   am
    13     6     7    1
    14     7     8    2
    15     8     9    1
    16     8    31    1
    17     9    10    1
    18     9    11   am
    19    10    32    1
    20    10    33    1
    21    10    34    1
    22    11    12    2
    23    13    14    1
    24    13    25    1
    25    13    15    1
    26    15    16    1
    27    15    35    1
    28    15    36    1
    29    16    17    1
    30    16    37    1
    31    16    38    1
    32    17    18   am
    33    17    25    1
    34    18    19    2
    35    18    20    1
    36    20    24    1
    37    20    21    2
    38    21    22    1
    39    22    23    2
    40    22    39    1
    41    23    24    1
    42    23    40    1
    43    24    41    1
    44    25    42    1
    45    25    43    1
@<TRIPOS>SUBSTRUCTURE
     1 ZINC000937331732        1 TEMP              0 ****  ****    0 ROOT


##########                                Name:    ZINC000753658424
##########                DOCK_Rotatable_Bonds:                   8
##########                         Heavy_Atoms:                  24
##########                    Molecular_Weight:             332.399
##########                DOCK_Rotatable_Bonds:                   8
##########                       Formal_Charge:        -9.16421e-07
##########                     HBond_Acceptors:                   6
##########                        HBond_Donors:                   3
##########                         Heavy_Atoms:                  24
##########                          Grid_Score:          -28.747581
##########                     Grid_vdw_energy:          -27.240292
##########                      Grid_es_energy:           -1.507290
##########           Internal_energy_repulsive:           16.193073

@<TRIPOS>MOLECULE
ZINC000753658424
 48 49 1 0 0
SMALL
USER_CHARGES


@<TRIPOS>ATOM
      1 C1         -7.2940    3.4570   50.2603 C.3     1  ZINC000753658424   -0.2000
      2 C2         -6.9127    2.4797   51.3423 C.2     1  ZINC000753658424    0.4400
      3 O3         -7.6094    1.5098   51.5566 O.2     1  ZINC000753658424   -0.4500
      4 C4         -5.6999    2.7009   52.1359 C.2     1  ZINC000753658424   -0.2500
      5 C5         -4.3925    2.5196   51.7123 C.2     1  ZINC000753658424    0.1000
      6 C6         -3.9650    2.0565   50.3434 C.3     1  ZINC000753658424   -0.1000
      7 N7         -3.5731    2.8271   52.7284 N.pl3   1  ZINC000753658424   -0.5300
      8 C8         -4.3237    3.2097   53.8193 C.2     1  ZINC000753658424   -0.0600
      9 C9         -3.7932    3.6218   55.1252 C.2     1  ZINC000753658424    0.5900
     10 O10        -4.0592    4.7226   55.5699 O.2     1  ZINC000753658424   -0.5200
     11 N11        -3.0116    2.7807   55.8309 N.am    1  ZINC000753658424   -0.7300
     12 C12        -2.4810    3.1925   57.1329 C.3     1  ZINC000753658424    0.0900
     13 C13        -1.7548    2.0135   57.7837 C.3     1  ZINC000753658424    0.1900
     14 H14        -2.1009    1.0817   57.3363 H       1  ZINC000753658424    0.1300
     15 O15        -2.0303    1.9997   59.1859 O.3     1  ZINC000753658424   -0.5500
     16 C16        -0.2706    2.1549   57.5647 C.2     1  ZINC000753658424   -0.0600
     17 C17         0.3157    2.7631   56.5179 C.2     1  ZINC000753658424   -0.1800
     18 C18         1.7121    2.6638   56.7160 C.2     1  ZINC000753658424   -0.2100
     19 C19         1.8956    2.0009   57.8720 C.2     1  ZINC000753658424    0.0000
     20 C20         3.2267    1.6599   58.4907 C.3     1  ZINC000753658424   -0.0800
     21 O21         0.6912    1.7003   58.3846 O.3     1  ZINC000753658424   -0.1700
     22 C22        -5.6413    3.1463   53.4784 C.2     1  ZINC000753658424   -0.0100
     23 C23        -6.8138    3.4780   54.3650 C.3     1  ZINC000753658424   -0.0500
     24 C24        -7.7933    4.3721   53.6020 C.3     1  ZINC000753658424   -0.1500
     25 C25        -7.5203    2.1862   54.7809 C.3     1  ZINC000753658424   -0.1500
     26 H26        -8.1724    3.0882   49.7307 H       1  ZINC000753658424    0.0800
     27 H27        -7.5194    4.4248   50.7080 H       1  ZINC000753658424    0.1000
     28 H28        -6.4659    3.5647   49.5598 H       1  ZINC000753658424    0.0900
     29 H29        -3.7466    2.9224   49.7187 H       1  ZINC000753658424    0.0900
     30 H30        -3.0720    1.4376   50.4318 H       1  ZINC000753658424    0.0800
     31 H31        -4.7671    1.4742   49.8899 H       1  ZINC000753658424    0.0900
     32 H32        -2.6043    2.7866   52.7001 H       1  ZINC000753658424    0.4200
     33 H33        -2.8005    1.9026   55.4768 H       1  ZINC000753658424    0.4000
     34 H34        -1.7829    4.0183   56.9960 H       1  ZINC000753658424    0.0900
     35 H35        -3.3015    3.5129   57.7748 H       1  ZINC000753658424    0.0800
     36 H36        -1.6394    1.2507   59.6562 H       1  ZINC000753658424    0.3900
     37 H37        -0.1843    3.2359   55.6856 H       1  ZINC000753658424    0.1500
     38 H38         2.4834    3.0465   56.0641 H       1  ZINC000753658424    0.1500
     39 H39         3.5377    2.4685   59.1523 H       1  ZINC000753658424    0.0800
     40 H40         3.1356    0.7369   59.0631 H       1  ZINC000753658424    0.0800
     41 H41         3.9697    1.5279   57.7042 H       1  ZINC000753658424    0.0900
     42 H42        -6.4608    4.0013   55.2536 H       1  ZINC000753658424    0.1100
     43 H43        -8.2372    3.8076   52.7820 H       1  ZINC000753658424    0.0500
     44 H44        -8.5788    4.7100   54.2778 H       1  ZINC000753658424    0.0600
     45 H45        -7.2613    5.2356   53.2025 H       1  ZINC000753658424    0.0600
     46 H46        -6.8475    1.5847   55.3921 H       1  ZINC000753658424    0.0500
     47 H47        -8.4136    2.4296   55.3560 H       1  ZINC000753658424    0.0600
     48 H48        -7.8031    1.6240   53.8910 H       1  ZINC000753658424    0.0600
@<TRIPOS>BOND
     1     1     2    1
     2     1    26    1
     3     1    27    1
     4     1    28    1
     5     2     3    2
     6     2     4    1
     7     4    22    1
     8     4     5    2
     9     5     6    1
    10     5     7    1
    11     6    29    1
    12     6    30    1
    13     6    31    1
    14     7     8    1
    15     7    32    1
    16     8     9    1
    17     8    22    2
    18     9    10    2
    19     9    11   am
    20    11    12    1
    21    11    33    1
    22    12    13    1
    23    12    34    1
    24    12    35    1
    25    13    14    1
    26    13    15    1
    27    13    16    1
    28    15    36    1
    29    16    21    1
    30    16    17    2
    31    17    18    1
    32    17    37    1
    33    18    19    2
    34    18    38    1
    35    19    20    1
    36    19    21    1
    37    20    39    1
    38    20    40    1
    39    20    41    1
    40    22    23    1
    41    23    24    1
    42    23    25    1
    43    23    42    1
    44    24    43    1
    45    24    44    1
    46    24    45    1
    47    25    46    1
    48    25    47    1
    49    25    48    1
@<TRIPOS>SUBSTRUCTURE
     1 ZINC000753658424        1 TEMP              0 ****  ****    0 ROOT


##########                                Name:    ZINC000032503012
##########                DOCK_Rotatable_Bonds:                   8
##########                         Heavy_Atoms:                  27
##########                    Molecular_Weight:             390.503
##########                DOCK_Rotatable_Bonds:                   8
##########                       Formal_Charge:           0.0099995
##########                     HBond_Acceptors:                   7
##########                        HBond_Donors:                   2
##########                         Heavy_Atoms:                  27
##########                          Grid_Score:          -28.713713
##########                     Grid_vdw_energy:          -28.428642
##########                      Grid_es_energy:           -0.285071
##########           Internal_energy_repulsive:           45.483379

@<TRIPOS>MOLECULE
ZINC000032503012
 53 54 1 0 0
SMALL
USER_CHARGES


@<TRIPOS>ATOM
      1 C1         -8.9388    5.4674   57.7723 C.3     1  ZINC000032503012   -0.1200
      2 C2         -8.6466    3.9907   57.8436 C.ar    1  ZINC000032503012   -0.0500
      3 C3         -7.7300    3.4254   56.9768 C.ar    1  ZINC000032503012   -0.1600
      4 C4         -7.4597    2.0707   57.0396 C.ar    1  ZINC000032503012   -0.0700
      5 C5         -8.1053    1.2788   57.9692 C.ar    1  ZINC000032503012   -0.1500
      6 C6         -9.0258    1.8438   58.8402 C.ar    1  ZINC000032503012    0.1300
      7 O7         -9.6621    1.0669   59.7560 O.3     1  ZINC000032503012   -0.2800
      8 C8         -9.2166   -0.2850   59.8814 C.3     1  ZINC000032503012    0.0700
      9 H9         -8.1340   -0.3236   59.7606 H       1  ZINC000032503012    0.1100
     10 C10        -9.5950   -0.8206   61.2637 C.3     1  ZINC000032503012   -0.1800
     11 C11        -9.8710   -1.1300   58.8189 C.2     1  ZINC000032503012    0.5200
     12 O12        -9.5263   -2.2823   58.6629 O.2     1  ZINC000032503012   -0.4900
     13 N13       -10.8392   -0.6052   58.0419 N.am    1  ZINC000032503012   -0.6700
     14 C14       -11.4468   -1.3897   57.0554 C.ar    1  ZINC000032503012    0.1300
     15 C15       -12.2855   -2.4356   57.4170 C.ar    1  ZINC000032503012   -0.0600
     16 C16       -12.8838   -3.2082   56.4408 C.ar    1  ZINC000032503012   -0.1200
     17 C17       -12.6479   -2.9415   55.1048 C.ar    1  ZINC000032503012   -0.0300
     18 C18       -11.8128   -1.9008   54.7413 C.ar    1  ZINC000032503012   -0.6600
     19 S19       -11.5154   -1.5650   53.0374 S.o2    1  ZINC000032503012    2.7000
     20 O20       -10.7310   -0.3808   52.9928 O.2     1  ZINC000032503012   -0.9600
     21 O21       -11.1033   -2.7926   52.4524 O.2     1  ZINC000032503012   -0.9500
     22 N22       -12.9738   -1.1859   52.3507 N.am    1  ZINC000032503012   -1.1100
     23 C23       -13.7405   -0.0397   52.8452 C.3     1  ZINC000032503012    0.1700
     24 C24       -14.7227   -0.5085   53.9204 C.3     1  ZINC000032503012   -0.1900
     25 C25       -12.7840    0.9937   53.4436 C.3     1  ZINC000032503012   -0.1500
     26 C26       -14.5155    0.5930   51.6875 C.3     1  ZINC000032503012   -0.1800
     27 C27       -11.2167   -1.1204   55.7124 C.ar    1  ZINC000032503012   -0.0400
     28 C28        -9.2909    3.2039   58.7790 C.ar    1  ZINC000032503012   -0.2100
     29 H29        -8.2543    6.0053   58.4282 H       1  ZINC000032503012    0.0700
     30 H30        -8.8081    5.8145   56.7473 H       1  ZINC000032503012    0.0700
     31 H31        -9.9653    5.6504   58.0898 H       1  ZINC000032503012    0.0700
     32 H32        -7.2245    4.0428   56.2490 H       1  ZINC000032503012    0.1300
     33 H33        -6.7435    1.6313   56.3611 H       1  ZINC000032503012    0.1300
     34 H34        -7.8942    0.2208   58.0176 H       1  ZINC000032503012    0.1300
     35 H35        -9.1216   -0.2095   62.0322 H       1  ZINC000032503012    0.0800
     36 H36       -10.6775   -0.7821   61.3844 H       1  ZINC000032503012    0.0800
     37 H37        -9.2551   -1.8519   61.3592 H       1  ZINC000032503012    0.0800
     38 H38       -11.1148    0.3165   58.1666 H       1  ZINC000032503012    0.4100
     39 H39       -12.4696   -2.6449   58.4604 H       1  ZINC000032503012    0.1400
     40 H40       -13.5363   -4.0218   56.7213 H       1  ZINC000032503012    0.1400
     41 H41       -13.1167   -3.5473   54.3434 H       1  ZINC000032503012    0.1500
     42 H42       -13.3204   -1.7228   51.6209 H       1  ZINC000032503012    0.4200
     43 H43       -14.1937   -1.1141   54.6564 H       1  ZINC000032503012    0.0700
     44 H44       -15.1638    0.3583   54.4125 H       1  ZINC000032503012    0.0800
     45 H45       -15.5102   -1.1040   53.4584 H       1  ZINC000032503012    0.0700
     46 H46       -12.0843    1.3278   52.6776 H       1  ZINC000032503012    0.0700
     47 H47       -13.3545    1.8466   53.8114 H       1  ZINC000032503012    0.0700
     48 H48       -12.2320    0.5429   54.2683 H       1  ZINC000032503012    0.0600
     49 H49       -15.3294   -0.0685   51.3906 H       1  ZINC000032503012    0.0900
     50 H50       -14.9244    1.5522   52.0052 H       1  ZINC000032503012    0.0700
     51 H51       -13.8449    0.7461   50.8420 H       1  ZINC000032503012    0.0600
     52 H52       -10.5646   -0.3079   55.4280 H       1  ZINC000032503012    0.1400
     53 H53       -10.0070    3.6460   59.4559 H       1  ZINC000032503012    0.1300
@<TRIPOS>BOND
     1     1     2    1
     2     1    29    1
     3     1    30    1
     4     1    31    1
     5     2    28   ar
     6     2     3   ar
     7     3     4   ar
     8     3    32    1
     9     4     5   ar
    10     4    33    1
    11     5     6   ar
    12     5    34    1
    13     6     7    1
    14     6    28   ar
    15     7     8    1
    16     8     9    1
    17     8    10    1
    18     8    11    1
    19    10    35    1
    20    10    36    1
    21    10    37    1
    22    11    12    2
    23    11    13   am
    24    13    14    1
    25    13    38    1
    26    14    27   ar
    27    14    15   ar
    28    15    16   ar
    29    15    39    1
    30    16    17   ar
    31    16    40    1
    32    17    18   ar
    33    17    41    1
    34    18    19    1
    35    18    27   ar
    36    19    20    2
    37    19    21    2
    38    19    22   am
    39    22    23    1
    40    22    42    1
    41    23    24    1
    42    23    25    1
    43    23    26    1
    44    24    43    1
    45    24    44    1
    46    24    45    1
    47    25    46    1
    48    25    47    1
    49    25    48    1
    50    26    49    1
    51    26    50    1
    52    26    51    1
    53    27    52    1
    54    28    53    1
@<TRIPOS>SUBSTRUCTURE
     1 ZINC000032503012        1 TEMP              0 ****  ****    0 ROOT


##########                                Name:    ZINC000132775118
##########                DOCK_Rotatable_Bonds:                   5
##########                         Heavy_Atoms:                  27
##########                    Molecular_Weight:             376.499
##########                DOCK_Rotatable_Bonds:                   5
##########                       Formal_Charge:        -4.76837e-07
##########                     HBond_Acceptors:                   7
##########                        HBond_Donors:                   1
##########                         Heavy_Atoms:                  27
##########                          Grid_Score:          -28.693832
##########                     Grid_vdw_energy:          -28.214155
##########                      Grid_es_energy:           -0.479676
##########           Internal_energy_repulsive:           22.910280

@<TRIPOS>MOLECULE
ZINC000132775118
 59 62 1 0 0
SMALL
USER_CHARGES


@<TRIPOS>ATOM
      1 O1        -10.9728    3.2227   51.3566 O.2     1  ZINC000132775118   -0.5200
      2 C2        -10.1995    2.3802   51.7602 C.2     1  ZINC000132775118    0.5200
      3 C3        -10.6926    0.9894   52.0662 C.3     1  ZINC000132775118    0.0300
      4 N4        -10.8291    0.8271   53.5198 N.3     1  ZINC000132775118   -0.5100
      5 C5        -11.4622    2.0083   54.1247 C.3     1  ZINC000132775118    0.0300
      6 C6        -11.7958    1.7506   55.5658 C.2     1  ZINC000132775118    0.5300
      7 O7        -12.0541    2.6989   56.2766 O.2     1  ZINC000132775118   -0.5500
      8 N8        -11.8227    0.5241   56.1046 N.am    1  ZINC000132775118   -0.7200
      9 C9        -11.4600   -0.6615   55.3404 C.3     1  ZINC000132775118    0.1500
     10 H10       -10.4220   -0.9164   55.5539 H       1  ZINC000132775118    0.0800
     11 C11       -12.3463   -1.8529   55.6968 C.3     1  ZINC000132775118   -0.1300
     12 C12       -11.8718   -3.0770   54.9071 C.3     1  ZINC000132775118   -0.1200
     13 C13       -11.9517   -2.7939   53.4068 C.3     1  ZINC000132775118   -0.1200
     14 C14       -11.0858   -1.5797   53.0560 C.3     1  ZINC000132775118   -0.1200
     15 C15       -11.6038   -0.3761   53.8441 C.3     1  ZINC000132775118    0.0700
     16 H16       -12.6498   -0.2016   53.5921 H       1  ZINC000132775118    0.0600
     17 N17        -8.8978    2.6862   51.9296 N.am    1  ZINC000132775118   -0.6200
     18 C18        -7.9466    1.6729   52.4063 C.3     1  ZINC000132775118    0.1100
     19 C19        -6.7738    1.5967   51.4236 C.3     1  ZINC000132775118   -0.1200
     20 C20        -6.1701    2.9918   51.2470 C.3     1  ZINC000132775118   -0.1000
     21 C21        -4.9945    2.9149   50.3071 C.2     1  ZINC000132775118    0.5300
     22 O22        -5.1784    2.8549   49.1098 O.2     1  ZINC000132775118   -0.5300
     23 N23        -3.7391    2.9127   50.7971 N.am    1  ZINC000132775118   -0.6200
     24 C24        -3.3746    2.9742   52.2201 C.3     1  ZINC000132775118    0.1000
     25 C25        -1.8333    2.9726   52.2988 C.3     1  ZINC000132775118   -0.1300
     26 C26        -1.4131    3.4810   50.8945 C.3     1  ZINC000132775118   -0.1300
     27 C27        -2.5039    2.8418   49.9954 C.3     1  ZINC000132775118    0.1000
     28 C28        -7.2254    3.9366   50.6673 C.3     1  ZINC000132775118   -0.1200
     29 C29        -8.4021    4.0376   51.6356 C.3     1  ZINC000132775118    0.1200
     30 H30       -11.6610    0.8345   51.5907 H       1  ZINC000132775118    0.0700
     31 H31        -9.9793    0.2589   51.6844 H       1  ZINC000132775118    0.1200
     32 H32       -10.7786    2.8549   54.0600 H       1  ZINC000132775118    0.1300
     33 H33       -12.3769    2.2437   53.5807 H       1  ZINC000132775118    0.0700
     34 H34       -12.0913    0.4228   57.0312 H       1  ZINC000132775118    0.4000
     35 H35       -12.2723   -2.0564   56.7651 H       1  ZINC000132775118    0.0800
     36 H36       -13.3808   -1.6291   55.4367 H       1  ZINC000132775118    0.0700
     37 H37       -10.8407   -3.3050   55.1777 H       1  ZINC000132775118    0.0700
     38 H38       -12.5048   -3.9310   55.1484 H       1  ZINC000132775118    0.0700
     39 H39       -11.5956   -3.6638   52.8549 H       1  ZINC000132775118    0.0700
     40 H40       -12.9869   -2.5918   53.1314 H       1  ZINC000132775118    0.0600
     41 H41       -10.0481   -1.7827   53.3205 H       1  ZINC000132775118    0.0800
     42 H42       -11.1591   -1.3753   51.9879 H       1  ZINC000132775118    0.0700
     43 H43        -7.5786    1.9529   53.3934 H       1  ZINC000132775118    0.0800
     44 H44        -8.4419    0.7034   52.4600 H       1  ZINC000132775118    0.0900
     45 H45        -6.0151    0.9188   51.8146 H       1  ZINC000132775118    0.0800
     46 H46        -7.1292    1.2296   50.4608 H       1  ZINC000132775118    0.0800
     47 H47        -5.8376    3.3688   52.2142 H       1  ZINC000132775118    0.0900
     48 H48        -3.7675    3.8888   52.6642 H       1  ZINC000132775118    0.0700
     49 H49        -3.7733    2.1048   52.7428 H       1  ZINC000132775118    0.0700
     50 H50        -1.4862    3.6540   53.0755 H       1  ZINC000132775118    0.0800
     51 H51        -1.4571    1.9643   52.4724 H       1  ZINC000132775118    0.0800
     52 H52        -1.4503    4.5693   50.8457 H       1  ZINC000132775118    0.0800
     53 H53        -0.4229    3.1130   50.6258 H       1  ZINC000132775118    0.0900
     54 H54        -2.2505    1.8060   49.7699 H       1  ZINC000132775118    0.0700
     55 H55        -2.6198    3.4139   49.0749 H       1  ZINC000132775118    0.0800
     56 H56        -6.7880    4.9241   50.5199 H       1  ZINC000132775118    0.0800
     57 H57        -7.5764    3.5474   49.7116 H       1  ZINC000132775118    0.0800
     58 H58        -9.1977    4.6297   51.1833 H       1  ZINC000132775118    0.1000
     59 H59        -8.0738    4.5096   52.5616 H       1  ZINC000132775118    0.0700
@<TRIPOS>BOND
     1     1     2    2
     2     2     3    1
     3     2    17   am
     4     3     4    1
     5     3    30    1
     6     3    31    1
     7     4    15    1
     8     4     5    1
     9     5     6    1
    10     5    32    1
    11     5    33    1
    12     6     7    2
    13     6     8   am
    14     8     9    1
    15     8    34    1
    16     9    10    1
    17     9    15    1
    18     9    11    1
    19    11    12    1
    20    11    35    1
    21    11    36    1
    22    12    13    1
    23    12    37    1
    24    12    38    1
    25    13    14    1
    26    13    39    1
    27    13    40    1
    28    14    15    1
    29    14    41    1
    30    14    42    1
    31    15    16    1
    32    17    29    1
    33    17    18    1
    34    18    19    1
    35    18    43    1
    36    18    44    1
    37    19    20    1
    38    19    45    1
    39    19    46    1
    40    20    21    1
    41    20    28    1
    42    20    47    1
    43    21    22    2
    44    21    23   am
    45    23    27    1
    46    23    24    1
    47    24    25    1
    48    24    48    1
    49    24    49    1
    50    25    26    1
    51    25    50    1
    52    25    51    1
    53    26    27    1
    54    26    52    1
    55    26    53    1
    56    27    54    1
    57    27    55    1
    58    28    29    1
    59    28    56    1
    60    28    57    1
    61    29    58    1
    62    29    59    1
@<TRIPOS>SUBSTRUCTURE
     1 ZINC000132775118        1 TEMP              0 ****  ****    0 ROOT


##########                                Name:    ZINC000549381790
##########                DOCK_Rotatable_Bonds:                   7
##########                         Heavy_Atoms:                  23
##########                    Molecular_Weight:             337.846
##########                DOCK_Rotatable_Bonds:                   7
##########                       Formal_Charge:           0.0300006
##########                     HBond_Acceptors:                   5
##########                        HBond_Donors:                   0
##########                         Heavy_Atoms:                  23
##########                          Grid_Score:          -28.683861
##########                     Grid_vdw_energy:          -28.092695
##########                      Grid_es_energy:           -0.591166
##########           Internal_energy_repulsive:           88.308167

@<TRIPOS>MOLECULE
ZINC000549381790
 47 49 1 0 0
SMALL
USER_CHARGES


@<TRIPOS>ATOM
      1 C1         -9.6090   -1.3932   60.4866 C.3     1  ZINC000549381790   -0.1400
      2 C2        -10.5625   -0.1973   60.4502 C.3     1  ZINC000549381790    0.1500
      3 H3        -11.5610   -0.5344   60.1719 H       1  ZINC000549381790    0.0700
      4 C4        -10.6100    0.4640   61.8312 C.3     1  ZINC000549381790   -0.1300
      5 C5        -11.4542    1.7381   61.7536 C.3     1  ZINC000549381790   -0.1200
      6 C6        -10.8113    2.7189   60.7704 C.3     1  ZINC000549381790   -0.1400
      7 C7        -10.7661    2.0833   59.3773 C.3     1  ZINC000549381790    0.1000
      8 N8        -10.0830    0.7852   59.4686 N.am    1  ZINC000549381790   -0.6100
      9 C9         -9.0340    0.5037   58.6707 C.2     1  ZINC000549381790    0.5200
     10 O10        -8.4787   -0.5712   58.7558 O.2     1  ZINC000549381790   -0.5000
     11 C11        -8.5509    1.5246   57.6730 C.3     1  ZINC000549381790    0.0400
     12 O12        -9.5286    1.6836   56.6429 O.3     1  ZINC000549381790   -0.2800
     13 C13        -9.0770    1.6992   55.3603 C.ar    1  ZINC000549381790    0.1100
     14 C14        -8.2640    2.7345   54.9241 C.ar    1  ZINC000549381790   -0.1700
     15 C15        -7.8044    2.7506   53.6211 C.ar    1  ZINC000549381790   -0.1600
     16 C16        -8.1565    1.7320   52.7489 C.ar    1  ZINC000549381790    0.1100
     17 O17        -7.7042    1.7481   51.4664 O.3     1  ZINC000549381790   -0.3000
     18 C18        -6.3321    1.4073   51.2581 C.3     1  ZINC000549381790    0.0900
     19 C19        -5.4798    2.6774   51.2962 C.3     1  ZINC000549381790   -0.1600
     20 C20        -4.4531    2.8728   50.1789 C.3     1  ZINC000549381790   -0.1700
     21 C21        -5.7236    3.7247   50.2079 C.3     1  ZINC000549381790   -0.1700
     22 C22        -8.9705    0.6955   53.1851 C.ar    1  ZINC000549381790   -0.0300
     23 Cl23       -9.4112   -0.5805   52.0936 Cl      1  ZINC000549381790   -0.0400
     24 C24        -9.4251    0.6766   54.4900 C.ar    1  ZINC000549381790   -0.1000
     25 H25        -8.5927   -1.0423   60.6661 H       1  ZINC000549381790    0.0600
     26 H26        -9.9061   -2.0705   61.2873 H       1  ZINC000549381790    0.0500
     27 H27        -9.6487   -1.9189   59.5326 H       1  ZINC000549381790    0.0800
     28 H28       -11.0557   -0.2246   62.5490 H       1  ZINC000549381790    0.0800
     29 H29        -9.5984    0.7166   62.1486 H       1  ZINC000549381790    0.0700
     30 H30       -12.4588    1.4878   61.4124 H       1  ZINC000549381790    0.0700
     31 H31       -11.5101    2.1974   62.7405 H       1  ZINC000549381790    0.0700
     32 H32       -11.4003    3.6353   60.7331 H       1  ZINC000549381790    0.0800
     33 H33        -9.7978    2.9503   61.0976 H       1  ZINC000549381790    0.0700
     34 H34       -11.7817    1.9344   59.0105 H       1  ZINC000549381790    0.0800
     35 H35       -10.2211    2.7359   58.6954 H       1  ZINC000549381790    0.0800
     36 H36        -8.3948    2.4788   58.1761 H       1  ZINC000549381790    0.0900
     37 H37        -7.6119    1.1876   57.2339 H       1  ZINC000549381790    0.0900
     38 H38        -7.9900    3.5285   55.6030 H       1  ZINC000549381790    0.1400
     39 H39        -7.1713    3.5571   53.2818 H       1  ZINC000549381790    0.1400
     40 H40        -6.0038    0.7257   52.0427 H       1  ZINC000549381790    0.0700
     41 H41        -6.2211    0.9243   50.2872 H       1  ZINC000549381790    0.0700
     42 H42        -5.2163    3.0370   52.2909 H       1  ZINC000549381790    0.1200
     43 H43        -3.5137    3.3612   50.4383 H       1  ZINC000549381790    0.1000
     44 H44        -4.3848    2.0967   49.4167 H       1  ZINC000549381790    0.1000
     45 H45        -6.4913    3.5090   49.4648 H       1  ZINC000549381790    0.1000
     46 H46        -5.6202    4.7734   50.4865 H       1  ZINC000549381790    0.1000
     47 H47       -10.0583   -0.1296   54.8297 H       1  ZINC000549381790    0.1500
@<TRIPOS>BOND
     1     1     2    1
     2     1    25    1
     3     1    26    1
     4     1    27    1
     5     2     3    1
     6     2     8    1
     7     2     4    1
     8     4     5    1
     9     4    28    1
    10     4    29    1
    11     5     6    1
    12     5    30    1
    13     5    31    1
    14     6     7    1
    15     6    32    1
    16     6    33    1
    17     7     8    1
    18     7    34    1
    19     7    35    1
    20     8     9   am
    21     9    10    2
    22     9    11    1
    23    11    12    1
    24    11    36    1
    25    11    37    1
    26    12    13    1
    27    13    24   ar
    28    13    14   ar
    29    14    15   ar
    30    14    38    1
    31    15    16   ar
    32    15    39    1
    33    16    17    1
    34    16    22   ar
    35    17    18    1
    36    18    19    1
    37    18    40    1
    38    18    41    1
    39    19    21    1
    40    19    20    1
    41    19    42    1
    42    20    21    1
    43    20    43    1
    44    20    44    1
    45    21    45    1
    46    21    46    1
    47    22    23    1
    48    22    24   ar
    49    24    47    1
@<TRIPOS>SUBSTRUCTURE
     1 ZINC000549381790        1 TEMP              0 ****  ****    0 ROOT


##########                                Name:    ZINC000790735374
##########                DOCK_Rotatable_Bonds:                   5
##########                         Heavy_Atoms:                  25
##########                    Molecular_Weight:             353.445
##########                DOCK_Rotatable_Bonds:                   5
##########                       Formal_Charge:                   0
##########                     HBond_Acceptors:                   6
##########                        HBond_Donors:                   1
##########                         Heavy_Atoms:                  25
##########                          Grid_Score:          -28.651415
##########                     Grid_vdw_energy:          -29.424601
##########                      Grid_es_energy:            0.773186
##########           Internal_energy_repulsive:            8.112857

@<TRIPOS>MOLECULE
ZINC000790735374
 44 47 1 0 0
SMALL
USER_CHARGES


@<TRIPOS>ATOM
      1 O1         -7.8806    1.5042   54.3325 O.2     1  ZINC000790735374   -0.5100
      2 C2         -8.7832    1.0696   53.6488 C.2     1  ZINC000790735374    0.5000
      3 N3         -9.9197    0.6361   54.2294 N.am    1  ZINC000790735374   -0.7200
      4 C4        -10.0622    0.6841   55.6867 C.3     1  ZINC000790735374    0.1400
      5 C5        -11.1116   -0.3370   56.1304 C.3     1  ZINC000790735374   -0.0300
      6 H6        -12.0747    0.1612   56.2419 H       1  ZINC000790735374    0.1100
      7 S7        -11.2512   -1.6376   54.8747 S.3     1  ZINC000790735374   -0.2400
      8 C8        -12.1913   -2.8992   55.7907 C.3     1  ZINC000790735374   -0.0800
      9 C9        -11.3286   -3.3668   56.9535 C.3     1  ZINC000790735374   -0.0800
     10 C10       -10.8216   -2.2449   57.8143 C.ar    1  ZINC000790735374   -0.0700
     11 C11       -10.4397   -2.6305   59.1037 C.ar    1  ZINC000790735374   -0.1200
     12 C12        -9.9396   -1.7225   60.0071 C.ar    1  ZINC000790735374   -0.1100
     13 C13        -9.8065   -0.3969   59.6375 C.ar    1  ZINC000790735374   -0.1200
     14 C14       -10.1859   -0.0098   58.3726 C.ar    1  ZINC000790735374   -0.1100
     15 C15       -10.7008   -0.9312   57.4549 C.ar    1  ZINC000790735374   -0.0800
     16 C16        -8.6366    1.0203   52.1498 C.3     1  ZINC000790735374    0.0300
     17 H17        -9.6108    0.9432   51.6669 H       1  ZINC000790735374    0.1500
     18 C18        -7.8560    2.2504   51.6288 C.3     1  ZINC000790735374   -0.1400
     19 C19        -6.4300    1.7362   51.5722 C.2     1  ZINC000790735374    0.1200
     20 C20        -5.2152    2.5665   51.4505 C.ar    1  ZINC000790735374   -0.1000
     21 C21        -5.1773    3.8566   51.9929 C.ar    1  ZINC000790735374   -0.0400
     22 C22        -4.0143    4.5934   51.8519 C.ar    1  ZINC000790735374   -0.1700
     23 C23        -2.9371    4.0374   51.1861 C.ar    1  ZINC000790735374    0.1200
     24 N24        -3.0011    2.8187   50.6848 N.ar    1  ZINC000790735374   -0.4800
     25 C25        -4.0827    2.0762   50.7975 C.ar    1  ZINC000790735374    0.1400
     26 N26        -6.4611    0.4481   51.6488 N.2     1  ZINC000790735374   -0.2700
     27 O27        -7.7755   -0.0655   51.7509 O.3     1  ZINC000790735374   -0.1600
     28 H28       -10.6432    0.2923   53.6825 H       1  ZINC000790735374    0.4100
     29 H29        -9.1058    0.4484   56.1533 H       1  ZINC000790735374    0.0800
     30 H30       -10.3771    1.6832   55.9882 H       1  ZINC000790735374    0.0900
     31 H31       -13.1181   -2.4674   56.1686 H       1  ZINC000790735374    0.0900
     32 H32       -12.4156   -3.7409   55.1354 H       1  ZINC000790735374    0.1100
     33 H33       -11.9161   -4.0441   57.5734 H       1  ZINC000790735374    0.0900
     34 H34       -10.4745   -3.9148   56.5558 H       1  ZINC000790735374    0.0900
     35 H35       -10.5401   -3.6652   59.3964 H       1  ZINC000790735374    0.1200
     36 H36        -9.6534   -2.0423   60.9981 H       1  ZINC000790735374    0.1300
     37 H37        -9.4094    0.3268   60.3340 H       1  ZINC000790735374    0.1300
     38 H38       -10.0814    1.0252   58.0825 H       1  ZINC000790735374    0.1300
     39 H39        -8.2035    2.5374   50.6363 H       1  ZINC000790735374    0.1200
     40 H40        -7.9391    3.0849   52.3252 H       1  ZINC000790735374    0.1100
     41 H41        -6.0336    4.2664   52.5078 H       1  ZINC000790735374    0.1500
     42 H42        -3.9487    5.5923   52.2572 H       1  ZINC000790735374    0.1500
     43 H43        -2.0285    4.6105   51.0744 H       1  ZINC000790735374    0.1600
     44 H44        -4.0969    1.0828   50.3741 H       1  ZINC000790735374    0.1600
@<TRIPOS>BOND
     1     1     2    2
     2     2     3   am
     3     2    16    1
     4     3     4    1
     5     3    28    1
     6     4     5    1
     7     4    29    1
     8     4    30    1
     9     5     6    1
    10     5    15    1
    11     5     7    1
    12     7     8    1
    13     8     9    1
    14     8    31    1
    15     8    32    1
    16     9    10    1
    17     9    33    1
    18     9    34    1
    19    10    15   ar
    20    10    11   ar
    21    11    12   ar
    22    11    35    1
    23    12    13   ar
    24    12    36    1
    25    13    14   ar
    26    13    37    1
    27    14    15   ar
    28    14    38    1
    29    16    17    1
    30    16    27    1
    31    16    18    1
    32    18    19    1
    33    18    39    1
    34    18    40    1
    35    19    20    1
    36    19    26    2
    37    20    25   ar
    38    20    21   ar
    39    21    22   ar
    40    21    41    1
    41    22    23   ar
    42    22    42    1
    43    23    24   ar
    44    23    43    1
    45    24    25   ar
    46    25    44    1
    47    26    27    1
@<TRIPOS>SUBSTRUCTURE
     1 ZINC000790735374        1 TEMP              0 ****  ****    0 ROOT


##########                                Name:    ZINC000446721380
##########                DOCK_Rotatable_Bonds:                   8
##########                         Heavy_Atoms:                  26
##########                    Molecular_Weight:             419.318
##########                DOCK_Rotatable_Bonds:                   8
##########                       Formal_Charge:           0.0199992
##########                     HBond_Acceptors:                   5
##########                        HBond_Donors:                   2
##########                         Heavy_Atoms:                  26
##########                          Grid_Score:          -28.636459
##########                     Grid_vdw_energy:          -28.082863
##########                      Grid_es_energy:           -0.553596
##########           Internal_energy_repulsive:          159.496490

@<TRIPOS>MOLECULE
ZINC000446721380
 49 51 1 0 0
SMALL
USER_CHARGES


@<TRIPOS>ATOM
      1 C1        -12.5410   -3.0146   55.6312 C.3     1  ZINC000446721380   -0.1200
      2 C2        -11.6518   -2.5174   56.7417 C.ar    1  ZINC000446721380   -0.0300
      3 C3        -11.3337   -3.3512   57.7975 C.ar    1  ZINC000446721380   -0.1600
      4 C4        -10.5179   -2.8980   58.8180 C.ar    1  ZINC000446721380   -0.0500
      5 C5        -10.0188   -1.6106   58.7847 C.ar    1  ZINC000446721380   -0.1500
      6 C6         -9.1294   -1.1175   59.8969 C.3     1  ZINC000446721380    0.1900
      7 N7         -9.9386   -0.4089   60.8914 N.am    1  ZINC000446721380   -0.7300
      8 C8         -9.4858   -0.2696   62.1532 C.2     1  ZINC000446721380    0.7100
      9 O9         -8.4051   -0.7308   62.4657 O.2     1  ZINC000446721380   -0.5700
     10 N10       -10.2310    0.3809   63.0686 N.am    1  ZINC000446721380   -0.6900
     11 C11        -9.7607    0.5256   64.3792 C.ar    1  ZINC000446721380    0.2000
     12 C12        -8.5250    0.0036   64.7363 C.ar    1  ZINC000446721380   -0.1200
     13 C13        -8.0634    0.1483   66.0305 C.ar    1  ZINC000446721380   -0.0800
     14 C14        -8.8303    0.8122   66.9698 C.ar    1  ZINC000446721380   -0.1300
     15 C15       -10.0622    1.3333   66.6179 C.ar    1  ZINC000446721380   -0.0700
     16 C16       -10.5272    1.1970   65.3240 C.ar    1  ZINC000446721380   -0.1300
     17 Br17      -12.2112    1.9103   64.8432 Br      1  ZINC000446721380   -0.0500
     18 C18       -10.3365   -0.7718   57.7260 C.ar    1  ZINC000446721380    0.1500
     19 O19        -9.8463    0.4953   57.6907 O.3     1  ZINC000446721380   -0.3100
     20 C20       -10.7973    1.5605   57.7418 C.3     1  ZINC000446721380    0.0700
     21 C21       -10.0830    2.8936   57.5104 C.3     1  ZINC000446721380   -0.1200
     22 H22        -9.5010    2.8585   56.5894 H       1  ZINC000446721380    0.1000
     23 C23        -9.1720    3.2363   58.7143 C.3     1  ZINC000446721380   -0.1500
     24 C24        -9.4059    4.7601   58.8749 C.3     1  ZINC000446721380    0.0500
     25 O25       -10.8086    4.9193   58.5722 O.3     1  ZINC000446721380   -0.3800
     26 C26       -11.1007    4.0496   57.4616 C.3     1  ZINC000446721380    0.0500
     27 C27       -11.1505   -1.2306   56.7009 C.ar    1  ZINC000446721380   -0.2100
     28 H28       -11.9297   -3.4723   54.8535 H       1  ZINC000446721380    0.0800
     29 H29       -13.2382   -3.7530   56.0271 H       1  ZINC000446721380    0.0700
     30 H30       -13.0984   -2.1779   55.2100 H       1  ZINC000446721380    0.0700
     31 H31       -11.7233   -4.3581   57.8256 H       1  ZINC000446721380    0.1300
     32 H32       -10.2712   -3.5512   59.6419 H       1  ZINC000446721380    0.1300
     33 H33        -8.6341   -1.9659   60.3692 H       1  ZINC000446721380    0.0800
     34 H34        -8.3794   -0.4399   59.4890 H       1  ZINC000446721380    0.0800
     35 H35       -10.8002   -0.0398   60.6418 H       1  ZINC000446721380    0.4000
     36 H36       -11.0931    0.7490   62.8194 H       1  ZINC000446721380    0.4100
     37 H37        -7.9253   -0.5156   64.0034 H       1  ZINC000446721380    0.1500
     38 H38        -7.1022   -0.2581   66.3088 H       1  ZINC000446721380    0.1300
     39 H39        -8.4670    0.9238   67.9806 H       1  ZINC000446721380    0.1300
     40 H40       -10.6593    1.8508   67.3541 H       1  ZINC000446721380    0.1400
     41 H41       -11.5504    1.4127   56.9677 H       1  ZINC000446721380    0.0700
     42 H42       -11.2788    1.5711   58.7197 H       1  ZINC000446721380    0.0700
     43 H43        -9.4889    2.6979   59.6076 H       1  ZINC000446721380    0.0800
     44 H44        -8.1277    3.0252   58.4845 H       1  ZINC000446721380    0.0900
     45 H45        -9.1956    5.0751   59.8970 H       1  ZINC000446721380    0.1000
     46 H46        -8.7945    5.3191   58.1664 H       1  ZINC000446721380    0.0600
     47 H47       -10.9991    4.5976   56.5249 H       1  ZINC000446721380    0.0600
     48 H48       -12.1130    3.6562   57.5553 H       1  ZINC000446721380    0.0900
     49 H49       -11.3992   -0.5796   55.8758 H       1  ZINC000446721380    0.1300
@<TRIPOS>BOND
     1     1     2    1
     2     1    28    1
     3     1    29    1
     4     1    30    1
     5     2    27   ar
     6     2     3   ar
     7     3     4   ar
     8     3    31    1
     9     4     5   ar
    10     4    32    1
    11     5     6    1
    12     5    18   ar
    13     6     7    1
    14     6    33    1
    15     6    34    1
    16     7     8   am
    17     7    35    1
    18     8     9    2
    19     8    10   am
    20    10    11    1
    21    10    36    1
    22    11    16   ar
    23    11    12   ar
    24    12    13   ar
    25    12    37    1
    26    13    14   ar
    27    13    38    1
    28    14    15   ar
    29    14    39    1
    30    15    16   ar
    31    15    40    1
    32    16    17    1
    33    18    19    1
    34    18    27   ar
    35    19    20    1
    36    20    21    1
    37    20    41    1
    38    20    42    1
    39    21    22    1
    40    21    26    1
    41    21    23    1
    42    23    24    1
    43    23    43    1
    44    23    44    1
    45    24    25    1
    46    24    45    1
    47    24    46    1
    48    25    26    1
    49    26    47    1
    50    26    48    1
    51    27    49    1
@<TRIPOS>SUBSTRUCTURE
     1 ZINC000446721380        1 TEMP              0 ****  ****    0 ROOT


##########                                Name:    ZINC000013551438
##########                DOCK_Rotatable_Bonds:                   5
##########                         Heavy_Atoms:                  27
##########                    Molecular_Weight:             377.467
##########                DOCK_Rotatable_Bonds:                   5
##########                       Formal_Charge:          -0.0300005
##########                     HBond_Acceptors:                   6
##########                        HBond_Donors:                   1
##########                         Heavy_Atoms:                  27
##########                          Grid_Score:          -28.633362
##########                     Grid_vdw_energy:          -27.948296
##########                      Grid_es_energy:           -0.685066
##########           Internal_energy_repulsive:            4.810184

@<TRIPOS>MOLECULE
ZINC000013551438
 46 49 1 0 0
SMALL
USER_CHARGES


@<TRIPOS>ATOM
      1 C1        -10.0898   -0.9918   60.2933 C.3     1  <0>         0.0300
      2 O2        -11.1687   -0.4810   59.5079 O.3     1  <0>        -0.3200
      3 C3        -11.2734   -0.9381   58.2314 C.ar    1  <0>         0.1000
      4 C4        -11.9534   -2.1250   57.9732 C.ar    1  <0>        -0.1800
      5 C5        -12.0683   -2.6014   56.6862 C.ar    1  <0>        -0.0900
      6 C6        -11.5023   -1.8952   55.6299 C.ar    1  <0>         0.0700
      7 C7        -10.8158   -0.6965   55.8885 C.ar    1  <0>        -0.0400
      8 C8        -10.7096   -0.2200   57.1947 C.ar    1  <0>        -0.1100
      9 C9        -10.3455   -0.2065   54.5831 C.2     1  <0>        -0.1200
     10 C10        -9.5665    1.0306   54.3305 C.2     1  <0>         0.1700
     11 C11       -10.0621    2.2639   54.5447 C.2     1  <0>        -0.3000
     12 S12        -8.8156    3.4335   54.1191 S.3     1  <0>         0.2500
     13 C13        -7.7502    2.1662   53.6954 C.2     1  <0>         0.2400
     14 N14        -6.4553    2.3434   53.2265 N.am    1  <0>        -0.6200
     15 C15        -6.2255    2.4404   51.9021 C.2     1  <0>         0.5600
     16 O16        -7.1521    2.3744   51.1180 O.2     1  <0>        -0.5000
     17 C17        -4.8470    2.6272   51.4030 C.ar    1  <0>        -0.1400
     18 C18        -3.7704    2.6026   52.2913 C.ar    1  <0>        -0.0800
     19 C19        -2.4861    2.7770   51.8188 C.ar    1  <0>        -0.1300
     20 C20        -2.2639    2.9762   50.4677 C.ar    1  <0>        -0.0800
     21 C21        -3.3265    3.0024   49.5819 C.ar    1  <0>        -0.1300
     22 C22        -4.6152    2.8234   50.0404 C.ar    1  <0>        -0.0500
     23 N23        -8.3187    1.0174   53.8792 N.2     1  <0>        -0.5000
     24 C24       -10.7605   -1.1031   53.6568 C.2     1  <0>         0.1300
     25 C25       -10.5005   -1.0033   52.1758 C.3     1  <0>        -0.0900
     26 N26       -11.4506   -2.1134   54.2686 N.pl3   1  <0>        -0.4800
     27 C27       -12.0468   -3.2603   53.5790 C.3     1  <0>         0.0800
     28 H28        -9.1424   -0.7435   59.8147 H       1  <0>         0.0500
     29 H29       -10.1220   -0.5468   61.2879 H       1  <0>         0.1000
     30 H30       -10.1819   -2.0747   60.3767 H       1  <0>         0.0500
     31 H31       -12.3945   -2.6775   58.7898 H       1  <0>         0.1300
     32 H32       -12.5977   -3.5236   56.4970 H       1  <0>         0.1200
     33 H33       -10.1825    0.7009   57.3957 H       1  <0>         0.1300
     34 H34       -11.0506    2.4955   54.9128 H       1  <0>         0.1800
     35 H35        -5.7160    2.3973   53.8523 H       1  <0>         0.4200
     36 H36        -3.9425    2.4475   53.3461 H       1  <0>         0.1300
     37 H37        -1.6523    2.7586   52.5050 H       1  <0>         0.1300
     38 H38        -1.2565    3.1124   50.1030 H       1  <0>         0.1300
     39 H39        -3.1462    3.1586   48.5285 H       1  <0>         0.1300
     40 H40        -5.4437    2.8436   49.3479 H       1  <0>         0.1400
     41 H41        -9.6117   -1.5815   51.9232 H       1  <0>         0.0800
     42 H42       -11.3574   -1.3968   51.6291 H       1  <0>         0.0700
     43 H43       -10.3443    0.0406   51.9039 H       1  <0>         0.0800
     44 H44       -11.3198   -4.0707   53.5263 H       1  <0>         0.0700
     45 H45       -12.9267   -3.5967   54.1274 H       1  <0>         0.0800
     46 H46       -12.3375   -2.9668   52.5703 H       1  <0>         0.0800
@<TRIPOS>BOND
     1     1     2    1
     2     1    28    1
     3     1    29    1
     4     1    30    1
     5     2     3    1
     6     3     8   ar
     7     3     4   ar
     8     4     5   ar
     9     4    31    1
    10     5     6   ar
    11     5    32    1
    12     6    26    1
    13     6     7   ar
    14     7     8   ar
    15     7     9    1
    16     8    33    1
    17     9    10    1
    18     9    24    2
    19    10    23    1
    20    10    11    2
    21    11    12    1
    22    11    34    1
    23    12    13    1
    24    13    14    1
    25    13    23    2
    26    14    15   am
    27    14    35    1
    28    15    16    2
    29    15    17    1
    30    17    22   ar
    31    17    18   ar
    32    18    19   ar
    33    18    36    1
    34    19    20   ar
    35    19    37    1
    36    20    21   ar
    37    20    38    1
    38    21    22   ar
    39    21    39    1
    40    22    40    1
    41    24    25    1
    42    24    26    1
    43    25    41    1
    44    25    42    1
    45    25    43    1
    46    26    27    1
    47    27    44    1
    48    27    45    1
    49    27    46    1
@<TRIPOS>SUBSTRUCTURE
     1 <0>         1 TEMP              0 ****  ****    0 ROOT


##########                                Name:    ZINC000892389374
##########                DOCK_Rotatable_Bonds:                   6
##########                         Heavy_Atoms:                  25
##########                    Molecular_Weight:             371.383
##########                DOCK_Rotatable_Bonds:                   6
##########                       Formal_Charge:          -0.0199998
##########                     HBond_Acceptors:                   9
##########                        HBond_Donors:                   1
##########                         Heavy_Atoms:                  25
##########                          Grid_Score:          -28.630922
##########                     Grid_vdw_energy:          -28.763752
##########                      Grid_es_energy:            0.132830
##########           Internal_energy_repulsive:            8.506319

@<TRIPOS>MOLECULE
ZINC000892389374
 41 43 1 0 0
SMALL
USER_CHARGES


@<TRIPOS>ATOM
      1 C1        -10.8702    1.8779   54.6927 C.3     1  ZINC000892389374   -0.1000
      2 C2         -9.6379    1.9147   53.8259 C.ar    1  ZINC000892389374   -0.1800
      3 C3         -8.5952    2.7627   54.1447 C.ar    1  ZINC000892389374   -0.0400
      4 C4         -7.4635    2.7991   53.3527 C.ar    1  ZINC000892389374   -0.2100
      5 C5         -7.3711    1.9830   52.2326 C.ar    1  ZINC000892389374    0.2200
      6 N6         -6.2244    2.0207   51.4311 N.am    1  ZINC000892389374   -0.5700
      7 C7         -4.9109    1.4647   51.7905 C.3     1  ZINC000892389374    0.0600
      8 C8         -4.0313    1.7799   50.5653 C.3     1  ZINC000892389374    0.0400
      9 O9         -4.9318    2.4731   49.6535 O.3     1  ZINC000892389374   -0.3200
     10 C10        -6.1456    2.5640   50.2087 C.2     1  ZINC000892389374    0.6400
     11 O11        -7.0882    3.0981   49.6584 O.2     1  ZINC000892389374   -0.5000
     12 C12        -8.4165    1.1299   51.9093 C.ar    1  ZINC000892389374   -0.2300
     13 C13        -9.5494    1.0913   52.7097 C.ar    1  ZINC000892389374    0.2400
     14 N14       -10.6041    0.2342   52.3878 N.pl3   1  ZINC000892389374   -0.7400
     15 C15       -10.4092   -1.2170   52.4354 C.3     1  ZINC000892389374    0.2000
     16 C16       -11.3675   -1.8202   53.4299 C.2     1  ZINC000892389374   -0.2400
     17 C17       -11.1335   -2.8874   54.1995 C.2     1  ZINC000892389374    0.0600
     18 N18       -12.1334   -3.2207   54.9904 N.2     1  ZINC000892389374   -0.4500
     19 C19       -13.1980   -2.4940   54.9308 C.2     1  ZINC000892389374    0.0200
     20 C20       -14.4410   -2.7160   55.7534 C.3     1  ZINC000892389374   -0.0900
     21 C21       -14.4275   -4.1351   56.3251 C.3     1  ZINC000892389374    0.4600
     22 F22       -15.5940   -4.3502   57.0669 F       1  ZINC000892389374   -0.1800
     23 F23       -14.3642   -5.0596   55.2770 F       1  ZINC000892389374   -0.1800
     24 F24       -13.3119   -4.2932   57.1543 F       1  ZINC000892389374   -0.1700
     25 S25       -12.9915   -1.2385   53.7888 S.3     1  ZINC000892389374    0.1900
     26 H26       -10.7398    1.1335   55.4781 H       1  ZINC000892389374    0.0700
     27 H27       -11.0269    2.8579   55.1434 H       1  ZINC000892389374    0.0700
     28 H28       -11.7352    1.6156   54.0835 H       1  ZINC000892389374    0.0600
     29 H29        -8.6648    3.3989   55.0146 H       1  ZINC000892389374    0.1300
     30 H30        -6.6499    3.4633   53.6047 H       1  ZINC000892389374    0.1200
     31 H31        -4.5179    1.9560   52.6805 H       1  ZINC000892389374    0.1000
     32 H32        -4.9803    0.3881   51.9453 H       1  ZINC000892389374    0.1000
     33 H33        -3.2007    2.4269   50.8474 H       1  ZINC000892389374    0.1100
     34 H34        -3.6631    0.8594   50.1123 H       1  ZINC000892389374    0.1100
     35 H35        -8.3471    0.4946   51.0386 H       1  ZINC000892389374    0.1600
     36 H36       -11.4657    0.5997   52.1327 H       1  ZINC000892389374    0.4000
     37 H37       -10.5949   -1.6411   51.4486 H       1  ZINC000892389374    0.0900
     38 H38        -9.3854   -1.4364   52.7384 H       1  ZINC000892389374    0.0800
     39 H39       -10.2012   -3.4321   54.1752 H       1  ZINC000892389374    0.1800
     40 H40       -14.4693   -1.9953   56.5707 H       1  ZINC000892389374    0.1300
     41 H41       -15.3214   -2.5862   55.1240 H       1  ZINC000892389374    0.1400
@<TRIPOS>BOND
     1     1     2    1
     2     1    26    1
     3     1    27    1
     4     1    28    1
     5     2    13   ar
     6     2     3   ar
     7     3     4   ar
     8     3    29    1
     9     4     5   ar
    10     4    30    1
    11     5     6    1
    12     5    12   ar
    13     6    10   am
    14     6     7    1
    15     7     8    1
    16     7    31    1
    17     7    32    1
    18     8     9    1
    19     8    33    1
    20     8    34    1
    21     9    10    1
    22    10    11    2
    23    12    13   ar
    24    12    35    1
    25    13    14    1
    26    14    15    1
    27    14    36    1
    28    15    16    1
    29    15    37    1
    30    15    38    1
    31    16    25    1
    32    16    17    2
    33    17    18    1
    34    17    39    1
    35    18    19    2
    36    19    20    1
    37    19    25    1
    38    20    21    1
    39    20    40    1
    40    20    41    1
    41    21    22    1
    42    21    23    1
    43    21    24    1
@<TRIPOS>SUBSTRUCTURE
     1 ZINC000892389374        1 TEMP              0 ****  ****    0 ROOT


##########                                Name:    ZINC001344051361
##########                DOCK_Rotatable_Bonds:                   8
##########                         Heavy_Atoms:                  28
##########                    Molecular_Weight:             379.456
##########                DOCK_Rotatable_Bonds:                   8
##########                       Formal_Charge:          -0.0100006
##########                     HBond_Acceptors:                   5
##########                        HBond_Donors:                   0
##########                         Heavy_Atoms:                  28
##########                          Grid_Score:          -28.629856
##########                     Grid_vdw_energy:          -28.262726
##########                      Grid_es_energy:           -0.367131
##########           Internal_energy_repulsive:           19.796049

@<TRIPOS>MOLECULE
ZINC001344051361
 53 56 1 0 0
SMALL
USER_CHARGES


@<TRIPOS>ATOM
      1 O1        -14.4545   -2.3296   55.1479 O.2     1  ZINC001344051361   -0.4800
      2 C2        -13.5279   -3.0899   55.3002 C.2     1  ZINC001344051361    0.4800
      3 O3        -12.3973   -2.9195   54.5971 O.3     1  ZINC001344051361   -0.3500
      4 C4        -12.4297   -1.9426   53.5233 C.3     1  ZINC001344051361    0.0700
      5 C5        -11.1892   -1.0510   53.6073 C.3     1  ZINC001344051361   -0.1000
      6 H6        -10.5211   -1.4292   54.3811 H       1  ZINC001344051361    0.0900
      7 C7        -10.4644   -1.0559   52.2595 C.3     1  ZINC001344051361   -0.1200
      8 C8         -9.2055   -0.1906   52.3522 C.3     1  ZINC001344051361   -0.1300
      9 C9         -9.6050    1.2512   52.6811 C.3     1  ZINC001344051361    0.0800
     10 N10       -10.4263    1.2483   53.8994 N.am    1  ZINC001344051361   -0.6100
     11 C11       -10.0991    2.0266   54.9499 C.2     1  ZINC001344051361    0.5600
     12 O12       -10.7867    2.0151   55.9522 O.2     1  ZINC001344051361   -0.5300
     13 C13        -8.9038    2.8943   54.8833 C.ar    1  ZINC001344051361   -0.1300
     14 C14        -8.9326    4.0705   54.1324 C.ar    1  ZINC001344051361   -0.1000
     15 C15        -7.8140    4.8759   54.0748 C.ar    1  ZINC001344051361   -0.1300
     16 C16        -6.6654    4.5197   54.7589 C.ar    1  ZINC001344051361   -0.0900
     17 C17        -6.6300    3.3549   55.5047 C.ar    1  ZINC001344051361   -0.1300
     18 C18        -7.7438    2.5437   55.5758 C.ar    1  ZINC001344051361   -0.0600
     19 C19       -11.6111    0.3809   53.9512 C.3     1  ZINC001344051361    0.1200
     20 C20       -13.6393   -4.2258   56.2842 C.3     1  ZINC001344051361    0.0200
     21 O21       -12.4619   -4.4982   57.0469 O.3     1  ZINC001344051361   -0.2500
     22 C22       -11.9922   -3.4962   57.8357 C.ar    1  ZINC001344051361    0.1200
     23 C23       -12.8255   -2.4473   58.1965 C.ar    1  ZINC001344051361   -0.2000
     24 C24       -12.3458   -1.4302   58.9989 C.ar    1  ZINC001344051361   -0.0800
     25 C25       -11.0362   -1.4567   59.4419 C.ar    1  ZINC001344051361   -0.1500
     26 C26       -10.2037   -2.5007   59.0834 C.ar    1  ZINC001344051361   -0.0800
     27 C27       -10.6804   -3.5235   58.2864 C.ar    1  ZINC001344051361   -0.1400
     28 C28       -14.9904   -4.4360   56.9706 C.3     1  ZINC001344051361   -0.1700
     29 C29       -14.5188   -5.4152   55.8937 C.3     1  ZINC001344051361   -0.1100
     30 H30       -12.4421   -2.4583   52.5631 H       1  ZINC001344051361    0.0800
     31 H31       -13.3254   -1.3287   53.6175 H       1  ZINC001344051361    0.0800
     32 H32       -10.1847   -2.0773   52.0013 H       1  ZINC001344051361    0.0700
     33 H33       -11.1247   -0.6551   51.4906 H       1  ZINC001344051361    0.0700
     34 H34        -8.5559   -0.5763   53.1379 H       1  ZINC001344051361    0.0700
     35 H35        -8.6774   -0.2134   51.3990 H       1  ZINC001344051361    0.0800
     36 H36        -8.7092    1.8501   52.8457 H       1  ZINC001344051361    0.1100
     37 H37       -10.1794    1.6689   51.8542 H       1  ZINC001344051361    0.0700
     38 H38        -9.8283    4.3492   53.5973 H       1  ZINC001344051361    0.1400
     39 H39        -7.8349    5.7863   53.4941 H       1  ZINC001344051361    0.1300
     40 H40        -5.7923    5.1536   54.7102 H       1  ZINC001344051361    0.1300
     41 H41        -5.7302    3.0824   56.0361 H       1  ZINC001344051361    0.1300
     42 H42        -7.7151    1.6349   56.1585 H       1  ZINC001344051361    0.1300
     43 H43       -12.3494    0.7273   53.2280 H       1  ZINC001344051361    0.0700
     44 H44       -12.0387    0.4060   54.9536 H       1  ZINC001344051361    0.1000
     45 H45       -13.8482   -2.4258   57.8501 H       1  ZINC001344051361    0.1300
     46 H46       -12.9941   -0.6134   59.2800 H       1  ZINC001344051361    0.1300
     47 H47       -10.6630   -0.6604   60.0689 H       1  ZINC001344051361    0.1300
     48 H48        -9.1812   -2.5190   59.4304 H       1  ZINC001344051361    0.1300
     49 H49       -10.0297   -4.3387   58.0065 H       1  ZINC001344051361    0.1300
     50 H50       -14.9815   -4.7821   58.0042 H       1  ZINC001344051361    0.1200
     51 H51       -15.7988   -3.7527   56.7104 H       1  ZINC001344051361    0.1200
     52 H52       -15.0170   -5.3762   54.9250 H       1  ZINC001344051361    0.1200
     53 H53       -14.1997   -6.4055   56.2188 H       1  ZINC001344051361    0.1200
@<TRIPOS>BOND
     1     1     2    2
     2     2     3    1
     3     2    20    1
     4     3     4    1
     5     4     5    1
     6     4    30    1
     7     4    31    1
     8     5     6    1
     9     5    19    1
    10     5     7    1
    11     7     8    1
    12     7    32    1
    13     7    33    1
    14     8     9    1
    15     8    34    1
    16     8    35    1
    17     9    10    1
    18     9    36    1
    19     9    37    1
    20    10    11   am
    21    10    19    1
    22    11    12    2
    23    11    13    1
    24    13    18   ar
    25    13    14   ar
    26    14    15   ar
    27    14    38    1
    28    15    16   ar
    29    15    39    1
    30    16    17   ar
    31    16    40    1
    32    17    18   ar
    33    17    41    1
    34    18    42    1
    35    19    43    1
    36    19    44    1
    37    20    29    1
    38    20    21    1
    39    20    28    1
    40    21    22    1
    41    22    27   ar
    42    22    23   ar
    43    23    24   ar
    44    23    45    1
    45    24    25   ar
    46    24    46    1
    47    25    26   ar
    48    25    47    1
    49    26    27   ar
    50    26    48    1
    51    27    49    1
    52    28    29    1
    53    28    50    1
    54    28    51    1
    55    29    52    1
    56    29    53    1
@<TRIPOS>SUBSTRUCTURE
     1 ZINC001344051361        1 TEMP              0 ****  ****    0 ROOT


##########                                Name:    ZINC001707162141
##########                DOCK_Rotatable_Bonds:                   9
##########                         Heavy_Atoms:                  25
##########                    Molecular_Weight:               344.5
##########                DOCK_Rotatable_Bonds:                   9
##########                       Formal_Charge:          -0.0299999
##########                     HBond_Acceptors:                   5
##########                        HBond_Donors:                   1
##########                         Heavy_Atoms:                  25
##########                          Grid_Score:          -28.628096
##########                     Grid_vdw_energy:          -29.083258
##########                      Grid_es_energy:            0.455162
##########           Internal_energy_repulsive:           79.093109

@<TRIPOS>MOLECULE
ZINC001707162141
 57 59 1 0 0
SMALL
USER_CHARGES


@<TRIPOS>ATOM
      1 C1         -9.2813   -2.2066   59.7302 C.3     1  ZINC001707162141   -0.1800
      2 C2         -9.6195   -0.7147   59.7536 C.3     1  ZINC001707162141    0.1700
      3 H3         -8.8507   -0.1594   59.2161 H       1  ZINC001707162141    0.1000
      4 N4        -10.9215   -0.4975   59.1088 N.3     1  ZINC001707162141   -0.6400
      5 C5        -10.7530   -0.0641   57.7153 C.3     1  ZINC001707162141    0.0700
      6 C6        -12.0004   -0.4359   56.9112 C.3     1  ZINC001707162141    0.1500
      7 H7        -12.8457    0.1629   57.2503 H       1  ZINC001707162141    0.0700
      8 C8        -12.3111   -1.9236   57.1040 C.3     1  ZINC001707162141   -0.1200
      9 C9        -13.4733   -2.3204   56.1910 C.3     1  ZINC001707162141   -0.0900
     10 H10       -14.3457   -1.7114   56.4283 H       1  ZINC001707162141    0.0700
     11 C11       -13.8092   -3.7976   56.4061 C.3     1  ZINC001707162141   -0.1500
     12 C12       -13.0766   -2.0952   54.7302 C.3     1  ZINC001707162141   -0.1300
     13 C13       -12.7746   -0.6096   54.5105 C.3     1  ZINC001707162141    0.1100
     14 N14       -11.7596   -0.1843   55.4839 N.am    1  ZINC001707162141   -0.6100
     15 C15       -10.6288    0.4247   55.0752 C.2     1  ZINC001707162141    0.5100
     16 O16        -9.7986    0.7710   55.8886 O.2     1  ZINC001707162141   -0.4800
     17 C17       -10.3961    0.6753   53.6075 C.3     1  ZINC001707162141   -0.1400
     18 C18        -9.0516    1.3803   53.4174 C.3     1  ZINC001707162141   -0.0900
     19 C19        -8.8286    1.6608   51.9299 C.3     1  ZINC001707162141   -0.0900
     20 C20        -7.4985    2.3932   51.7429 C.3     1  ZINC001707162141   -0.1500
     21 C21        -6.5656    1.8928   50.6382 C.3     1  ZINC001707162141   -0.1800
     22 C22        -6.2187    1.6376   52.1064 C.3     1  ZINC001707162141   -0.1800
     23 C23        -9.6798   -0.2356   61.1812 C.ar    1  ZINC001707162141    0.3500
     24 N24       -10.6438    0.5878   61.5412 N.ar    1  ZINC001707162141   -0.5000
     25 C25       -10.7319    1.0249   62.7871 C.ar    1  ZINC001707162141    0.1500
     26 C26        -9.7867    0.6145   63.7140 C.ar    1  ZINC001707162141   -0.2400
     27 C27        -8.7847   -0.2473   63.2963 C.ar    1  ZINC001707162141    0.1500
     28 N28        -8.7639   -0.6468   62.0350 N.ar    1  ZINC001707162141   -0.5200
     29 H29        -9.2378   -2.5531   58.6977 H       1  ZINC001707162141    0.0600
     30 H30        -8.3154   -2.3678   60.2087 H       1  ZINC001707162141    0.0600
     31 H31       -10.0502   -2.7618   60.2676 H       1  ZINC001707162141    0.0600
     32 H32       -11.4946   -1.3261   59.1630 H       1  ZINC001707162141    0.3300
     33 H33       -10.6101    1.0161   57.6855 H       1  ZINC001707162141    0.1000
     34 H34        -9.8822   -0.5578   57.2840 H       1  ZINC001707162141    0.0200
     35 H35       -11.4311   -2.5148   56.8507 H       1  ZINC001707162141    0.0700
     36 H36       -12.5858   -2.1062   58.1429 H       1  ZINC001707162141    0.0700
     37 H37       -12.9371   -4.4068   56.1683 H       1  ZINC001707162141    0.0500
     38 H38       -14.0918   -3.9581   57.4465 H       1  ZINC001707162141    0.0600
     39 H39       -14.6378   -4.0800   55.7567 H       1  ZINC001707162141    0.0600
     40 H40       -13.8962   -2.4001   54.0795 H       1  ZINC001707162141    0.0700
     41 H41       -12.1894   -2.6849   54.4991 H       1  ZINC001707162141    0.0700
     42 H42       -13.6846   -0.0268   54.6531 H       1  ZINC001707162141    0.0600
     43 H43       -12.3967   -0.4591   53.4992 H       1  ZINC001707162141    0.0800
     44 H44       -10.3867   -0.2750   53.0737 H       1  ZINC001707162141    0.0800
     45 H45       -11.1950    1.3046   53.2152 H       1  ZINC001707162141    0.0800
     46 H46        -9.0535    2.3210   53.9682 H       1  ZINC001707162141    0.0700
     47 H47        -8.2507    0.7422   53.7909 H       1  ZINC001707162141    0.0700
     48 H48        -8.8048    0.7188   51.3822 H       1  ZINC001707162141    0.0600
     49 H49        -9.6412    2.2809   51.5513 H       1  ZINC001707162141    0.0600
     50 H50        -7.5213    3.4659   51.9351 H       1  ZINC001707162141    0.1000
     51 H51        -6.8996    1.0417   50.0448 H       1  ZINC001707162141    0.0900
     52 H52        -5.9746    2.6363   50.1034 H       1  ZINC001707162141    0.0900
     53 H53        -5.3995    2.2132   52.5374 H       1  ZINC001707162141    0.0900
     54 H54        -6.3245    0.6187   52.4787 H       1  ZINC001707162141    0.0900
     55 H55       -11.5267    1.6963   63.0767 H       1  ZINC001707162141    0.1600
     56 H56        -9.8301    0.9575   64.7371 H       1  ZINC001707162141    0.1400
     57 H57        -8.0310   -0.5878   63.9909 H       1  ZINC001707162141    0.1600
@<TRIPOS>BOND
     1     1     2    1
     2     1    29    1
     3     1    30    1
     4     1    31    1
     5     2     3    1
     6     2     4    1
     7     2    23    1
     8     4     5    1
     9     4    32    1
    10     5     6    1
    11     5    33    1
    12     5    34    1
    13     6     7    1
    14     6    14    1
    15     6     8    1
    16     8     9    1
    17     8    35    1
    18     8    36    1
    19     9    10    1
    20     9    11    1
    21     9    12    1
    22    11    37    1
    23    11    38    1
    24    11    39    1
    25    12    13    1
    26    12    40    1
    27    12    41    1
    28    13    14    1
    29    13    42    1
    30    13    43    1
    31    14    15   am
    32    15    16    2
    33    15    17    1
    34    17    18    1
    35    17    44    1
    36    17    45    1
    37    18    19    1
    38    18    46    1
    39    18    47    1
    40    19    20    1
    41    19    48    1
    42    19    49    1
    43    20    22    1
    44    20    21    1
    45    20    50    1
    46    21    22    1
    47    21    51    1
    48    21    52    1
    49    22    53    1
    50    22    54    1
    51    23    28   ar
    52    23    24   ar
    53    24    25   ar
    54    25    26   ar
    55    25    55    1
    56    26    27   ar
    57    26    56    1
    58    27    28   ar
    59    27    57    1
@<TRIPOS>SUBSTRUCTURE
     1 ZINC001707162141        1 TEMP              0 ****  ****    0 ROOT


##########                                Name:    ZINC001162683355
##########                DOCK_Rotatable_Bonds:                   5
##########                         Heavy_Atoms:                  25
##########                    Molecular_Weight:             336.437
##########                DOCK_Rotatable_Bonds:                   5
##########                       Formal_Charge:          -0.0100002
##########                     HBond_Acceptors:                   5
##########                        HBond_Donors:                   1
##########                         Heavy_Atoms:                  25
##########                          Grid_Score:          -28.619297
##########                     Grid_vdw_energy:          -28.106539
##########                      Grid_es_energy:           -0.512758
##########           Internal_energy_repulsive:           15.703662

@<TRIPOS>MOLECULE
ZINC001162683355
 49 52 1 0 0
SMALL
USER_CHARGES


@<TRIPOS>ATOM
      1 C1        -14.2195   -1.3442   59.0639 C.3     1  ZINC001162683355    0.0200
      2 N2        -12.9772   -1.5612   58.3105 N.3     1  ZINC001162683355   -0.5400
      3 C3        -13.1382   -2.6444   57.3297 C.3     1  ZINC001162683355    0.0100
      4 C4        -11.8427   -2.7964   56.5280 C.3     1  ZINC001162683355    0.0600
      5 O5        -10.7570   -3.0371   57.4272 O.3     1  ZINC001162683355   -0.3800
      6 C6        -10.5712   -2.0014   58.3958 C.3     1  ZINC001162683355    0.0800
      7 H7        -10.3442   -1.0642   57.8875 H       1  ZINC001162683355    0.0700
      8 C8         -9.4133   -2.3722   59.3246 C.3     1  ZINC001162683355    0.1500
      9 N9         -8.8973   -1.1620   59.9690 N.pl3   1  ZINC001162683355   -0.7300
     10 C10        -8.9441    0.0559   59.2997 C.ar    1  ZINC001162683355    0.4300
     11 C11        -9.6858    1.1144   59.8295 C.ar    1  ZINC001162683355   -0.0100
     12 C12        -9.7113    2.3330   59.1268 C.ar    1  ZINC001162683355   -0.0400
     13 C13        -8.9931    2.4337   57.9278 C.ar    1  ZINC001162683355   -0.1800
     14 C14        -8.2956    1.3478   57.4848 C.ar    1  ZINC001162683355    0.1000
     15 N15        -8.2858    0.2102   58.1628 N.ar    1  ZINC001162683355   -0.5400
     16 C16       -10.5515    3.2350   59.9089 C.2     1  ZINC001162683355   -0.2200
     17 C17       -10.9719    2.5458   60.9847 C.2     1  ZINC001162683355    0.0800
     18 N18       -10.4598    1.2800   60.9554 N.pl3   1  ZINC001162683355   -0.4600
     19 C19       -10.7032    0.2499   61.9683 C.3     1  ZINC001162683355    0.1500
     20 C20       -10.0697    0.6667   63.2707 C.ar    1  ZINC001162683355   -0.1100
     21 C21       -10.8490    1.2067   64.2766 C.ar    1  ZINC001162683355   -0.1000
     22 C22       -10.2686    1.5848   65.4730 C.ar    1  ZINC001162683355   -0.1200
     23 C23        -8.9076    1.4316   65.6598 C.ar    1  ZINC001162683355   -0.1100
     24 C24        -8.1275    0.8963   64.6519 C.ar    1  ZINC001162683355   -0.1200
     25 C25        -8.7086    0.5141   63.4573 C.ar    1  ZINC001162683355   -0.1000
     26 C26       -11.8538   -1.8413   59.2164 C.3     1  ZINC001162683355    0.0300
     27 H27       -14.4498   -2.2346   59.6489 H       1  ZINC001162683355    0.0300
     28 H28       -14.0949   -0.4925   59.7325 H       1  ZINC001162683355    0.0700
     29 H29       -15.0355   -1.1446   58.3693 H       1  ZINC001162683355    0.0700
     30 H30       -13.9586   -2.4042   56.6535 H       1  ZINC001162683355    0.0900
     31 H31       -13.3557   -3.5772   57.8501 H       1  ZINC001162683355    0.0500
     32 H32       -11.6536   -1.8822   55.9654 H       1  ZINC001162683355    0.0600
     33 H33       -11.9370   -3.6353   55.8384 H       1  ZINC001162683355    0.1000
     34 H34        -8.6188   -2.8421   58.7449 H       1  ZINC001162683355    0.0700
     35 H35        -9.7668   -3.0671   60.0864 H       1  ZINC001162683355    0.0800
     36 H36        -8.5228   -1.2104   60.8625 H       1  ZINC001162683355    0.4000
     37 H37        -8.9913    3.3549   57.3641 H       1  ZINC001162683355    0.1300
     38 H38        -7.7392    1.4176   56.5617 H       1  ZINC001162683355    0.1500
     39 H39       -10.7934    4.2594   59.6671 H       1  ZINC001162683355    0.1500
     40 H40       -11.6167    2.9361   61.7581 H       1  ZINC001162683355    0.1700
     41 H41       -10.2687   -0.6938   61.6386 H       1  ZINC001162683355    0.0900
     42 H42       -11.7768    0.1260   62.1097 H       1  ZINC001162683355    0.0900
     43 H43       -11.9118    1.3300   64.1293 H       1  ZINC001162683355    0.1200
     44 H44       -10.8781    2.0027   66.2606 H       1  ZINC001162683355    0.1300
     45 H45        -8.4538    1.7295   66.5935 H       1  ZINC001162683355    0.1300
     46 H46        -7.0642    0.7765   64.7979 H       1  ZINC001162683355    0.1300
     47 H47        -8.0991    0.0960   62.6697 H       1  ZINC001162683355    0.1200
     48 H48       -12.0507   -2.7613   59.7669 H       1  ZINC001162683355    0.0500
     49 H49       -11.7366   -1.0149   59.9174 H       1  ZINC001162683355    0.0900
@<TRIPOS>BOND
     1     1     2    1
     2     1    27    1
     3     1    28    1
     4     1    29    1
     5     2    26    1
     6     2     3    1
     7     3     4    1
     8     3    30    1
     9     3    31    1
    10     4     5    1
    11     4    32    1
    12     4    33    1
    13     5     6    1
    14     6     7    1
    15     6     8    1
    16     6    26    1
    17     8     9    1
    18     8    34    1
    19     8    35    1
    20     9    10    1
    21     9    36    1
    22    10    15   ar
    23    10    11   ar
    24    11    18    1
    25    11    12   ar
    26    12    13   ar
    27    12    16    1
    28    13    14   ar
    29    13    37    1
    30    14    15   ar
    31    14    38    1
    32    16    17    2
    33    16    39    1
    34    17    18    1
    35    17    40    1
    36    18    19    1
    37    19    20    1
    38    19    41    1
    39    19    42    1
    40    20    25   ar
    41    20    21   ar
    42    21    22   ar
    43    21    43    1
    44    22    23   ar
    45    22    44    1
    46    23    24   ar
    47    23    45    1
    48    24    25   ar
    49    24    46    1
    50    25    47    1
    51    26    48    1
    52    26    49    1
@<TRIPOS>SUBSTRUCTURE
     1 ZINC001162683355        1 TEMP              0 ****  ****    0 ROOT


##########                                Name:    ZINC000274225049
##########                DOCK_Rotatable_Bonds:                   6
##########                         Heavy_Atoms:                  25
##########                    Molecular_Weight:             380.895
##########                DOCK_Rotatable_Bonds:                   6
##########                       Formal_Charge:           0.0200006
##########                     HBond_Acceptors:                   7
##########                        HBond_Donors:                   2
##########                         Heavy_Atoms:                  25
##########                          Grid_Score:          -28.566359
##########                     Grid_vdw_energy:          -26.996216
##########                      Grid_es_energy:           -1.570143
##########           Internal_energy_repulsive:           11.465281

@<TRIPOS>MOLECULE
ZINC000274225049
 46 48 1 0 0
SMALL
USER_CHARGES


@<TRIPOS>ATOM
      1 C1         -4.2951    4.7427   55.5592 C.3     1  ZINC000274225049   -0.1600
      2 C2         -4.0973    3.2679   55.2034 C.3     1  ZINC000274225049    0.2000
      3 H3         -4.9349    2.6858   55.5878 H       1  ZINC000274225049    0.1100
      4 N4         -2.8508    2.7841   55.8019 N.am    1  ZINC000274225049   -0.7400
      5 C5         -2.8116    2.4635   57.1104 C.2     1  ZINC000274225049    0.7100
      6 O6         -3.8110    2.5746   57.7937 O.2     1  ZINC000274225049   -0.5800
      7 N7         -1.6644    2.0199   57.6614 N.am    1  ZINC000274225049   -0.7500
      8 C8         -1.6221    1.6698   59.0833 C.3     1  ZINC000274225049    0.1500
      9 C9         -0.2057    1.8861   59.6199 C.3     1  ZINC000274225049   -0.1000
     10 H10         0.4959    1.2405   59.0916 H       1  ZINC000274225049    0.1000
     11 C11        -0.1627    1.5879   61.1289 C.3     1  ZINC000274225049   -0.1100
     12 C12         1.1605    2.1325   61.7029 C.3     1  ZINC000274225049   -0.5900
     13 S13         1.6112    3.5321   60.6148 S.o2    1  ZINC000274225049    2.3900
     14 O14         1.4869    4.7493   61.3373 O.2     1  ZINC000274225049   -0.9300
     15 O15         2.8242    3.2311   59.9386 O.2     1  ZINC000274225049   -0.9300
     16 C16         0.2063    3.3709   59.4481 C.3     1  ZINC000274225049   -0.5900
     17 C17        -4.0269    3.1177   53.7055 C.ar    1  ZINC000274225049   -0.0700
     18 C18        -5.2048    2.9634   52.9553 C.ar    1  ZINC000274225049   -0.0300
     19 C19        -6.4667    2.9452   53.5738 C.ar    1  ZINC000274225049   -0.1100
     20 C20        -7.5862    2.7942   52.8149 C.ar    1  ZINC000274225049   -0.1100
     21 C21        -7.5017    2.6569   51.4305 C.ar    1  ZINC000274225049   -0.1100
     22 C22        -6.2971    2.6700   50.7973 C.ar    1  ZINC000274225049   -0.1000
     23 C23        -5.1189    2.8239   51.5475 C.ar    1  ZINC000274225049   -0.0400
     24 C24        -3.8563    2.8427   50.9289 C.ar    1  ZINC000274225049   -0.0300
     25 Cl25       -3.7259    2.6744   49.2059 Cl      1  ZINC000274225049   -0.0600
     26 C26        -2.7359    2.9943   51.6892 C.ar    1  ZINC000274225049   -0.1000
     27 C27        -2.8218    3.1365   53.0723 C.ar    1  ZINC000274225049   -0.1000
     28 H28        -4.3462    4.8514   56.6426 H       1  ZINC000274225049    0.0700
     29 H29        -3.4576    5.3248   55.1748 H       1  ZINC000274225049    0.0700
     30 H30        -5.2227    5.1027   55.1139 H       1  ZINC000274225049    0.0800
     31 H31        -2.0537    2.6944   55.2565 H       1  ZINC000274225049    0.4000
     32 H32        -0.8666    1.9325   57.1165 H       1  ZINC000274225049    0.4000
     33 H33        -2.3196    2.3012   59.6338 H       1  ZINC000274225049    0.0800
     34 H34        -1.9023    0.6239   59.2084 H       1  ZINC000274225049    0.0800
     35 H35        -1.0040    2.0742   61.6227 H       1  ZINC000274225049    0.0900
     36 H36        -0.2171    0.5115   61.2915 H       1  ZINC000274225049    0.0900
     37 H37         1.0149    2.4800   62.7257 H       1  ZINC000274225049    0.1400
     38 H38         1.9323    1.3636   61.6698 H       1  ZINC000274225049    0.1400
     39 H39         0.5278    3.5686   58.4256 H       1  ZINC000274225049    0.1400
     40 H40        -0.6109    4.0337   59.7327 H       1  ZINC000274225049    0.1400
     41 H41        -6.5475    3.0501   54.6456 H       1  ZINC000274225049    0.1300
     42 H42        -8.5548    2.7801   53.2927 H       1  ZINC000274225049    0.1300
     43 H43        -8.4057    2.5382   50.8516 H       1  ZINC000274225049    0.1300
     44 H44        -6.2469    2.5622   49.7238 H       1  ZINC000274225049    0.1300
     45 H45        -1.7671    3.0081   51.2120 H       1  ZINC000274225049    0.1300
     46 H46        -1.9183    3.2551   53.6518 H       1  ZINC000274225049    0.1300
@<TRIPOS>BOND
     1     1     2    1
     2     1    28    1
     3     1    29    1
     4     1    30    1
     5     2     3    1
     6     2     4    1
     7     2    17    1
     8     4     5   am
     9     4    31    1
    10     5     6    2
    11     5     7   am
    12     7     8    1
    13     7    32    1
    14     8     9    1
    15     8    33    1
    16     8    34    1
    17     9    10    1
    18     9    16    1
    19     9    11    1
    20    11    12    1
    21    11    35    1
    22    11    36    1
    23    12    13    1
    24    12    37    1
    25    12    38    1
    26    13    14    2
    27    13    15    2
    28    13    16    1
    29    16    39    1
    30    16    40    1
    31    17    27   ar
    32    17    18   ar
    33    18    23   ar
    34    18    19   ar
    35    19    20   ar
    36    19    41    1
    37    20    21   ar
    38    20    42    1
    39    21    22   ar
    40    21    43    1
    41    22    23   ar
    42    22    44    1
    43    23    24   ar
    44    24    25    1
    45    24    26   ar
    46    26    27   ar
    47    26    45    1
    48    27    46    1
@<TRIPOS>SUBSTRUCTURE
     1 ZINC000274225049        1 TEMP              0 ****  ****    0 ROOT


##########                                Name:    ZINC000271662144
##########                DOCK_Rotatable_Bonds:                   8
##########                         Heavy_Atoms:                  26
##########                    Molecular_Weight:             390.402
##########                DOCK_Rotatable_Bonds:                   8
##########                       Formal_Charge:          0.00999944
##########                     HBond_Acceptors:                   9
##########                        HBond_Donors:                   3
##########                         Heavy_Atoms:                  26
##########                          Grid_Score:          -28.552710
##########                     Grid_vdw_energy:          -27.929714
##########                      Grid_es_energy:           -0.622995
##########           Internal_energy_repulsive:           10.880227

@<TRIPOS>MOLECULE
ZINC000271662144
 44 45 1 0 0
SMALL
USER_CHARGES


@<TRIPOS>ATOM
      1 C1        -10.7245   -2.7691   60.0740 C.3     1  ZINC000271662144   -0.1400
      2 C2        -11.7181   -1.7220   59.5669 C.3     1  ZINC000271662144    0.1200
      3 H3        -11.3225   -1.2516   58.6668 H       1  ZINC000271662144    0.0600
      4 N4        -11.9247   -0.7009   60.6027 N.3     1  ZINC000271662144   -0.6700
      5 C5        -10.7745    0.2098   60.6809 C.3     1  ZINC000271662144    0.1300
      6 H6         -9.9506   -0.1943   60.0927 H       1  ZINC000271662144    0.1100
      7 C7        -11.1709    1.5805   60.1291 C.3     1  ZINC000271662144   -0.2000
      8 C8        -10.3296    1.8945   58.8903 C.3     1  ZINC000271662144    0.4600
      9 F9        -10.6063    0.9574   57.8890 F       1  ZINC000271662144   -0.1800
     10 F10       -10.6416    3.1773   58.4276 F       1  ZINC000271662144   -0.1800
     11 F11        -8.9717    1.8356   59.2218 F       1  ZINC000271662144   -0.1700
     12 C12       -10.3434    0.3521   62.1178 C.ar    1  ZINC000271662144   -0.0900
     13 C13       -11.1952    0.9305   63.0404 C.ar    1  ZINC000271662144   -0.0600
     14 C14       -10.8010    1.0616   64.3584 C.ar    1  ZINC000271662144   -0.1600
     15 C15        -9.5525    0.6129   64.7549 C.ar    1  ZINC000271662144    0.1000
     16 F16        -9.1662    0.7402   66.0433 F       1  ZINC000271662144   -0.1400
     17 C17        -8.7004    0.0334   63.8301 C.ar    1  ZINC000271662144   -0.1500
     18 C18        -9.0988   -0.1010   62.5136 C.ar    1  ZINC000271662144   -0.0700
     19 C19       -13.0320   -2.3885   59.2496 C.ar    1  ZINC000271662144   -0.1100
     20 C20       -14.0332   -2.4303   60.2013 C.ar    1  ZINC000271662144   -0.0400
     21 C21       -15.2386   -3.0417   59.9101 C.ar    1  ZINC000271662144   -0.1400
     22 C22       -15.4424   -3.6108   58.6672 C.ar    1  ZINC000271662144   -0.0200
     23 C23       -14.4411   -3.5683   57.7148 C.ar    1  ZINC000271662144   -0.6800
     24 S24       -14.7006   -4.2943   56.1305 S.o2    1  ZINC000271662144    2.7000
     25 N25       -13.5313   -3.6981   55.1207 N.am    1  ZINC000271662144   -1.2500
     26 O26       -14.4347   -5.6825   56.2768 O.2     1  ZINC000271662144   -0.9600
     27 O27       -15.9392   -3.7862   55.6543 O.2     1  ZINC000271662144   -0.9600
     28 C28       -13.2377   -2.9532   58.0044 C.ar    1  ZINC000271662144   -0.0100
     29 H29        -9.7742   -2.2870   60.3036 H       1  ZINC000271662144    0.0600
     30 H30       -11.1201   -3.2394   60.9743 H       1  ZINC000271662144    0.0700
     31 H31       -10.5712   -3.5268   59.3055 H       1  ZINC000271662144    0.0600
     32 H32       -12.7798   -0.1902   60.4415 H       1  ZINC000271662144    0.3500
     33 H33       -12.2268    1.5719   59.8585 H       1  ZINC000271662144    0.1100
     34 H34       -10.9969    2.3423   60.8890 H       1  ZINC000271662144    0.1200
     35 H35       -12.1690    1.2803   62.7309 H       1  ZINC000271662144    0.1300
     36 H36       -11.4661    1.5141   65.0788 H       1  ZINC000271662144    0.1400
     37 H37        -7.7263   -0.3165   64.1382 H       1  ZINC000271662144    0.1400
     38 H38        -8.4344   -0.5533   61.7922 H       1  ZINC000271662144    0.1300
     39 H39       -13.8741   -1.9856   61.1725 H       1  ZINC000271662144    0.1400
     40 H40       -16.0209   -3.0750   60.6541 H       1  ZINC000271662144    0.1400
     41 H41       -16.3837   -4.0891   58.4400 H       1  ZINC000271662144    0.1400
     42 H42       -13.5022   -3.9796   54.1929 H       1  ZINC000271662144    0.4200
     43 H43       -12.8756   -3.0674   55.4569 H       1  ZINC000271662144    0.4200
     44 H44       -12.4554   -2.9199   57.2606 H       1  ZINC000271662144    0.1400
@<TRIPOS>BOND
     1     1     2    1
     2     1    29    1
     3     1    30    1
     4     1    31    1
     5     2     3    1
     6     2     4    1
     7     2    19    1
     8     4     5    1
     9     4    32    1
    10     5     6    1
    11     5     7    1
    12     5    12    1
    13     7     8    1
    14     7    33    1
    15     7    34    1
    16     8     9    1
    17     8    10    1
    18     8    11    1
    19    12    18   ar
    20    12    13   ar
    21    13    14   ar
    22    13    35    1
    23    14    15   ar
    24    14    36    1
    25    15    16    1
    26    15    17   ar
    27    17    18   ar
    28    17    37    1
    29    18    38    1
    30    19    28   ar
    31    19    20   ar
    32    20    21   ar
    33    20    39    1
    34    21    22   ar
    35    21    40    1
    36    22    23   ar
    37    22    41    1
    38    23    24    1
    39    23    28   ar
    40    24    25   am
    41    24    26    2
    42    24    27    2
    43    25    42    1
    44    25    43    1
    45    28    44    1
@<TRIPOS>SUBSTRUCTURE
     1 ZINC000271662144        1 TEMP              0 ****  ****    0 ROOT


##########                                Name:    ZINC000119180466
##########                DOCK_Rotatable_Bonds:                  10
##########                         Heavy_Atoms:                  23
##########                    Molecular_Weight:             350.405
##########                DOCK_Rotatable_Bonds:                  10
##########                       Formal_Charge:           0.0299997
##########                     HBond_Acceptors:                   8
##########                        HBond_Donors:                   3
##########                         Heavy_Atoms:                  23
##########                          Grid_Score:          -28.542366
##########                     Grid_vdw_energy:          -26.079494
##########                      Grid_es_energy:           -2.462871
##########           Internal_energy_repulsive:           10.071688

@<TRIPOS>MOLECULE
ZINC000119180466
 44 44 1 0 0
SMALL
USER_CHARGES


@<TRIPOS>ATOM
      1 C1         -2.4307    2.2327   57.6262 C.3     1  ZINC000119180466   -0.1300
      2 S2         -3.5558    2.8486   56.3434 S.3     1  ZINC000119180466   -0.2200
      3 C3         -2.4360    3.6806   55.1838 C.3     1  ZINC000119180466   -0.0700
      4 H4         -1.6010    3.0208   54.9484 H       1  ZINC000119180466    0.1100
      5 C5         -1.9059    4.9667   55.8206 C.3     1  ZINC000119180466    0.0800
      6 O6         -2.9969    5.7164   56.3590 O.3     1  ZINC000119180466   -0.5600
      7 C7         -3.1939    4.0222   53.8994 C.3     1  ZINC000119180466    0.1900
      8 H8         -3.7465    4.9512   54.0398 H       1  ZINC000119180466    0.1000
      9 C9         -2.1989    4.1895   52.7493 C.3     1  ZINC000119180466   -0.1700
     10 N10        -4.1296    2.9406   53.5822 N.am    1  ZINC000119180466   -0.7200
     11 C11        -5.2031    3.1846   52.8046 C.2     1  ZINC000119180466    0.7100
     12 O12        -5.3941    4.3021   52.3651 O.2     1  ZINC000119180466   -0.6000
     13 N13        -6.0649    2.1899   52.5141 N.am    1  ZINC000119180466   -0.7400
     14 C14        -7.2308    2.4547   51.6674 C.3     1  ZINC000119180466    0.2000
     15 H15        -7.5960    3.4639   51.8573 H       1  ZINC000119180466    0.1000
     16 C16        -6.8323    2.3250   50.1959 C.3     1  ZINC000119180466   -0.1600
     17 C17        -8.3174    1.4595   51.9833 C.ar    1  ZINC000119180466   -0.0600
     18 C18        -8.0199    0.1115   52.0575 C.ar    1  ZINC000119180466   -0.1100
     19 C19        -9.0167   -0.8013   52.3472 C.ar    1  ZINC000119180466   -0.0600
     20 C20       -10.3109   -0.3662   52.5633 C.ar    1  ZINC000119180466   -0.1800
     21 C21       -11.3976   -1.3614   52.8786 C.3     1  ZINC000119180466    0.5100
     22 F22       -11.3389   -2.4206   51.9664 F       1  ZINC000119180466   -0.1800
     23 F23       -11.2180   -1.8529   54.1760 F       1  ZINC000119180466   -0.1800
     24 F24       -12.6450   -0.7348   52.7858 F       1  ZINC000119180466   -0.1800
     25 C25       -10.6081    0.9818   52.4904 C.ar    1  ZINC000119180466   -0.0600
     26 C26        -9.6106    1.8951   52.2045 C.ar    1  ZINC000119180466   -0.1100
     27 H27        -1.9042    3.0717   58.0811 H       1  ZINC000119180466    0.0800
     28 H28        -3.0035    1.7062   58.3896 H       1  ZINC000119180466    0.1000
     29 H29        -1.7082    1.5500   57.1787 H       1  ZINC000119180466    0.0800
     30 H30        -1.2082    4.7158   56.6196 H       1  ZINC000119180466    0.0500
     31 H31        -1.3938    5.5621   55.0648 H       1  ZINC000119180466    0.0600
     32 H32        -3.4172    5.3037   57.1259 H       1  ZINC000119180466    0.3800
     33 H33        -1.6462    3.2605   52.6089 H       1  ZINC000119180466    0.0700
     34 H34        -2.7389    4.4329   51.8342 H       1  ZINC000119180466    0.0700
     35 H35        -1.5026    4.9943   52.9852 H       1  ZINC000119180466    0.0700
     36 H36        -3.9767    2.0488   53.9317 H       1  ZINC000119180466    0.4100
     37 H37        -5.9132    1.2987   52.8656 H       1  ZINC000119180466    0.4000
     38 H38        -7.6997    2.5220   49.5659 H       1  ZINC000119180466    0.0700
     39 H39        -6.0464    3.0448   49.9675 H       1  ZINC000119180466    0.0700
     40 H40        -6.4671    1.3157   50.0060 H       1  ZINC000119180466    0.0600
     41 H41        -7.0088   -0.2283   51.8887 H       1  ZINC000119180466    0.1300
     42 H42        -8.7844   -1.8545   52.4045 H       1  ZINC000119180466    0.1400
     43 H43       -11.6192    1.3218   52.6595 H       1  ZINC000119180466    0.1400
     44 H44        -9.8427    2.9483   52.1475 H       1  ZINC000119180466    0.1400
@<TRIPOS>BOND
     1     1     2    1
     2     1    27    1
     3     1    28    1
     4     1    29    1
     5     2     3    1
     6     3     4    1
     7     3     5    1
     8     3     7    1
     9     5     6    1
    10     5    30    1
    11     5    31    1
    12     6    32    1
    13     7     8    1
    14     7     9    1
    15     7    10    1
    16     9    33    1
    17     9    34    1
    18     9    35    1
    19    10    11   am
    20    10    36    1
    21    11    12    2
    22    11    13   am
    23    13    14    1
    24    13    37    1
    25    14    15    1
    26    14    16    1
    27    14    17    1
    28    16    38    1
    29    16    39    1
    30    16    40    1
    31    17    26   ar
    32    17    18   ar
    33    18    19   ar
    34    18    41    1
    35    19    20   ar
    36    19    42    1
    37    20    21    1
    38    20    25   ar
    39    21    22    1
    40    21    23    1
    41    21    24    1
    42    25    26   ar
    43    25    43    1
    44    26    44    1
@<TRIPOS>SUBSTRUCTURE
     1 ZINC000119180466        1 TEMP              0 ****  ****    0 ROOT


##########                                Name:    ZINC000928803822
##########                DOCK_Rotatable_Bonds:                   7
##########                         Heavy_Atoms:                  21
##########                    Molecular_Weight:             364.165
##########                DOCK_Rotatable_Bonds:                   7
##########                       Formal_Charge:         -0.00999978
##########                     HBond_Acceptors:                   7
##########                        HBond_Donors:                   1
##########                         Heavy_Atoms:                  21
##########                          Grid_Score:          -28.499048
##########                     Grid_vdw_energy:          -27.664095
##########                      Grid_es_energy:           -0.834954
##########           Internal_energy_repulsive:           10.121533

@<TRIPOS>MOLECULE
ZINC000928803822
 34 34 1 0 0
SMALL
USER_CHARGES


@<TRIPOS>ATOM
      1 C1        -11.4692   -2.6659   53.0132 C.3     1  ZINC000928803822    0.0900
      2 N2        -11.6553   -1.2133   53.0552 N.pl3   1  ZINC000928803822   -0.6300
      3 C3        -12.9598   -0.6322   52.7285 C.3     1  ZINC000928803822    0.0900
      4 C4        -10.5887   -0.3824   53.4069 C.ar    1  ZINC000928803822    0.2200
      5 C5        -10.6195    0.3170   54.6074 C.ar    1  ZINC000928803822   -0.1500
      6 C6         -9.5658    1.1411   54.9601 C.ar    1  ZINC000928803822   -0.0500
      7 Br7        -9.6166    2.0882   56.5959 Br      1  ZINC000928803822   -0.0400
      8 C8         -8.4769    1.2738   54.1215 C.ar    1  ZINC000928803822   -0.1200
      9 C9         -8.4370    0.5752   52.9135 C.ar    1  ZINC000928803822   -0.0800
     10 C10        -7.2721    0.7155   52.0137 C.2     1  ZINC000928803822    0.5700
     11 O11        -7.0562   -0.1257   51.1632 O.2     1  ZINC000928803822   -0.5100
     12 N12        -6.4497    1.7762   52.1364 N.am    1  ZINC000928803822   -0.7200
     13 C13        -5.2946    1.9144   51.2460 C.3     1  ZINC000928803822    0.1100
     14 H14        -5.0061    0.9327   50.8702 H       1  ZINC000928803822    0.1400
     15 C15        -4.1255    2.5282   52.0189 C.3     1  ZINC000928803822   -0.0300
     16 C16        -2.9256    2.5393   51.1665 C.1     1  ZINC000928803822    0.2000
     17 N17        -1.9995    2.5479   50.5086 N.1     1  ZINC000928803822   -0.4000
     18 C18        -5.6621    2.8226   50.0710 C.3     1  ZINC000928803822    0.4400
     19 F19        -4.7132    2.6757   49.0535 F       1  ZINC000928803822   -0.1800
     20 F20        -6.9254    2.4685   49.5851 F       1  ZINC000928803822   -0.1700
     21 F21        -5.6838    4.1541   50.4997 F       1  ZINC000928803822   -0.1600
     22 C22        -9.4968   -0.2599   52.5608 C.ar    1  ZINC000928803822   -0.1200
     23 H23       -11.1471   -2.9622   52.0149 H       1  ZINC000928803822    0.0600
     24 H24       -10.7112   -2.9563   53.7407 H       1  ZINC000928803822    0.0700
     25 H25       -12.4108   -3.1599   53.2528 H       1  ZINC000928803822    0.0700
     26 H26       -13.5592   -0.5521   53.6353 H       1  ZINC000928803822    0.0500
     27 H27       -12.8184    0.3589   52.2976 H       1  ZINC000928803822    0.0700
     28 H28       -13.4724   -1.2712   52.0095 H       1  ZINC000928803822    0.0700
     29 H29       -11.4689    0.2173   55.2669 H       1  ZINC000928803822    0.1400
     30 H30        -7.6563    1.9183   54.4000 H       1  ZINC000928803822    0.1300
     31 H31        -6.6227    2.4481   52.8143 H       1  ZINC000928803822    0.4100
     32 H32        -4.3763    3.5493   52.3065 H       1  ZINC000928803822    0.1400
     33 H33        -3.9305    1.9364   52.9133 H       1  ZINC000928803822    0.1300
     34 H34        -9.4712   -0.8027   51.6275 H       1  ZINC000928803822    0.1500
@<TRIPOS>BOND
     1     1     2    1
     2     1    23    1
     3     1    24    1
     4     1    25    1
     5     2     3    1
     6     2     4    1
     7     3    26    1
     8     3    27    1
     9     3    28    1
    10     4    22   ar
    11     4     5   ar
    12     5     6   ar
    13     5    29    1
    14     6     7    1
    15     6     8   ar
    16     8     9   ar
    17     8    30    1
    18     9    10    1
    19     9    22   ar
    20    10    11    2
    21    10    12   am
    22    12    13    1
    23    12    31    1
    24    13    14    1
    25    13    15    1
    26    13    18    1
    27    15    16    1
    28    15    32    1
    29    15    33    1
    30    16    17    3
    31    18    19    1
    32    18    20    1
    33    18    21    1
    34    22    34    1
@<TRIPOS>SUBSTRUCTURE
     1 ZINC000928803822        1 TEMP              0 ****  ****    0 ROOT


##########                                Name:    ZINC000022858610
##########                DOCK_Rotatable_Bonds:                   9
##########                         Heavy_Atoms:                  26
##########                    Molecular_Weight:             369.343
##########                DOCK_Rotatable_Bonds:                   9
##########                       Formal_Charge:          0.00999956
##########                     HBond_Acceptors:                   9
##########                        HBond_Donors:                   2
##########                         Heavy_Atoms:                  26
##########                          Grid_Score:          -28.468988
##########                     Grid_vdw_energy:          -27.229790
##########                      Grid_es_energy:           -1.239199
##########           Internal_energy_repulsive:           18.361557

@<TRIPOS>MOLECULE
ZINC000022858610
 44 45 1 0 0
SMALL
USER_CHARGES


@<TRIPOS>ATOM
      1 C1        -13.3268   -0.1221   53.0724 C.3     1  <0>         0.0100
      2 N2        -12.9717   -1.0020   54.1937 N.3     1  <0>        -0.5300
      3 C3        -14.1605   -1.6793   54.7285 C.3     1  <0>         0.0200
      4 C4        -11.9462   -1.9752   53.7950 C.3     1  <0>         0.1500
      5 H5        -12.3461   -2.6269   53.0182 H       1  <0>         0.1200
      6 C6        -11.5421   -2.8160   55.0077 C.3     1  <0>         0.1300
      7 N7        -11.2356   -1.9317   56.1348 N.am    1  <0>        -0.6800
      8 C8        -11.1677   -2.4317   57.3845 C.2     1  <0>         0.5100
      9 O9        -11.3588   -3.6147   57.5761 O.2     1  <0>        -0.5100
     10 C10       -10.8570   -1.5298   58.5338 C.2     1  <0>         0.5200
     11 O11       -10.3820   -0.4313   58.3321 O.2     1  <0>        -0.4900
     12 N12       -11.1042   -1.9358   59.7950 N.am    1  <0>        -0.6500
     13 C13       -10.8136   -1.0920   60.8702 C.ar    1  <0>         0.1900
     14 C14        -9.5073   -0.9707   61.3266 C.ar    1  <0>        -0.1200
     15 C15        -9.2236   -0.1358   62.3896 C.ar    1  <0>        -0.0700
     16 C16       -10.2382    0.5789   62.9993 C.ar    1  <0>        -0.1300
     17 C17       -11.5401    0.4601   62.5477 C.ar    1  <0>        -0.0500
     18 C18       -11.8299   -0.3680   61.4815 C.ar    1  <0>        -0.2100
     19 C19       -13.2487   -0.4968   60.9901 C.3     1  <0>         0.5100
     20 F20       -13.3627    0.1039   59.7318 F       1  <0>        -0.1700
     21 F21       -13.5875   -1.8506   60.8931 F       1  <0>        -0.1800
     22 F22       -14.1130    0.1370   61.8894 F       1  <0>        -0.1700
     23 C23       -10.7391   -1.2446   53.2656 C.2     1  <0>        -0.0500
     24 C24       -10.2609   -0.0761   53.7294 C.2     1  <0>        -0.1900
     25 C25        -9.1259    0.2410   52.9482 C.2     1  <0>        -0.2100
     26 C26        -8.9785   -0.7527   52.0537 C.2     1  <0>        -0.0400
     27 O27        -9.9550   -1.6527   52.2544 O.3     1  <0>        -0.1700
     28 H28       -13.9412    0.7012   53.4369 H       1  <0>         0.0700
     29 H29       -12.4181    0.2752   52.6203 H       1  <0>         0.0700
     30 H30       -13.8849   -0.6898   52.3277 H       1  <0>         0.0500
     31 H31       -14.6196   -2.2809   53.9440 H       1  <0>         0.0300
     32 H32       -13.8691   -2.3243   55.5575 H       1  <0>         0.0700
     33 H33       -14.8749   -0.9352   55.0807 H       1  <0>         0.0800
     34 H34       -12.3629   -3.4798   55.2795 H       1  <0>         0.0900
     35 H35       -10.6614   -3.4092   54.7615 H       1  <0>         0.0800
     36 H36       -11.0817   -0.9863   55.9817 H       1  <0>         0.4200
     37 H37       -11.4839   -2.8137   59.9562 H       1  <0>         0.4300
     38 H38        -8.7144   -1.5289   60.8510 H       1  <0>         0.1500
     39 H39        -8.2082   -0.0412   62.7452 H       1  <0>         0.1400
     40 H40       -10.0136    1.2311   63.8304 H       1  <0>         0.1400
     41 H41       -12.3303    1.0192   63.0267 H       1  <0>         0.1500
     42 H42       -10.6664    0.5081   54.5422 H       1  <0>         0.1500
     43 H43        -8.4980    1.1139   53.0499 H       1  <0>         0.1500
     44 H44        -8.2039   -0.8178   51.3040 H       1  <0>         0.2000
@<TRIPOS>BOND
     1     1     2    1
     2     1    28    1
     3     1    29    1
     4     1    30    1
     5     2     3    1
     6     2     4    1
     7     3    31    1
     8     3    32    1
     9     3    33    1
    10     4     5    1
    11     4     6    1
    12     4    23    1
    13     6     7    1
    14     6    34    1
    15     6    35    1
    16     7     8   am
    17     7    36    1
    18     8     9    2
    19     8    10    1
    20    10    11    2
    21    10    12   am
    22    12    13    1
    23    12    37    1
    24    13    18   ar
    25    13    14   ar
    26    14    15   ar
    27    14    38    1
    28    15    16   ar
    29    15    39    1
    30    16    17   ar
    31    16    40    1
    32    17    18   ar
    33    17    41    1
    34    18    19    1
    35    19    20    1
    36    19    21    1
    37    19    22    1
    38    23    27    1
    39    23    24    2
    40    24    25    1
    41    24    42    1
    42    25    26    2
    43    25    43    1
    44    26    27    1
    45    26    44    1
@<TRIPOS>SUBSTRUCTURE
     1 <0>         1 TEMP              0 ****  ****    0 ROOT


##########                                Name:    ZINC000618094467
##########                DOCK_Rotatable_Bonds:                   5
##########                         Heavy_Atoms:                  27
##########                    Molecular_Weight:             370.492
##########                DOCK_Rotatable_Bonds:                   5
##########                       Formal_Charge:                0.03
##########                     HBond_Acceptors:                   5
##########                        HBond_Donors:                   0
##########                         Heavy_Atoms:                  27
##########                          Grid_Score:          -28.461170
##########                     Grid_vdw_energy:          -28.246204
##########                      Grid_es_energy:           -0.214965
##########           Internal_energy_repulsive:          104.861443

@<TRIPOS>MOLECULE
ZINC000618094467
 57 59 1 0 0
SMALL
USER_CHARGES


@<TRIPOS>ATOM
      1 C1        -16.0411   -1.2889   57.9429 C.3     1  ZINC000618094467   -0.1500
      2 C2        -15.6830   -2.3130   59.0217 C.3     1  ZINC000618094467   -0.1000
      3 C3        -14.5974   -1.7361   59.9325 C.3     1  ZINC000618094467   -0.1100
      4 H4        -14.7690   -0.6687   60.0711 H       1  ZINC000618094467    0.1000
      5 C5        -14.6433   -2.4405   61.2900 C.3     1  ZINC000618094467   -0.1500
      6 C6        -13.2460   -1.9500   59.3011 C.2     1  ZINC000618094467    0.5200
      7 O7        -13.0778   -2.8661   58.5242 O.2     1  ZINC000618094467   -0.5000
      8 N8        -12.2242   -1.1233   59.5994 N.am    1  ZINC000618094467   -0.6100
      9 C9        -12.3952   -0.0064   60.5347 C.3     1  ZINC000618094467    0.1400
     10 C10       -11.2231    0.0466   61.4821 C.ar    1  ZINC000618094467   -0.1000
     11 C11       -11.3213    0.8797   62.5879 C.ar    1  ZINC000618094467   -0.1100
     12 C12       -10.2777    0.9786   63.4854 C.ar    1  ZINC000618094467   -0.1200
     13 C13        -9.1255    0.2431   63.2803 C.ar    1  ZINC000618094467   -0.1100
     14 C14        -9.0284   -0.5884   62.1838 C.ar    1  ZINC000618094467   -0.1200
     15 C15       -10.0798   -0.6945   61.2818 C.ar    1  ZINC000618094467   -0.0600
     16 C16        -9.9132   -1.6426   60.1236 C.3     1  ZINC000618094467   -0.0800
     17 C17       -10.8904   -1.3089   59.0046 C.3     1  ZINC000618094467    0.1200
     18 H18       -10.5821   -0.3889   58.5079 H       1  ZINC000618094467    0.1000
     19 C19       -10.9285   -2.4383   58.0075 C.2     1  ZINC000618094467    0.5500
     20 O20       -10.8623   -3.5874   58.3899 O.2     1  ZINC000618094467   -0.5200
     21 N21       -11.0360   -2.1714   56.6908 N.am    1  ZINC000618094467   -0.6100
     22 C22       -11.0798   -3.2656   55.7123 C.3     1  ZINC000618094467    0.1200
     23 C23       -12.3754   -3.1492   54.8992 C.3     1  ZINC000618094467   -0.1600
     24 H24       -12.3368   -3.8292   54.0481 H       1  ZINC000618094467    0.1100
     25 C25       -13.5727   -3.4999   55.7849 C.3     1  ZINC000618094467   -0.1400
     26 C26       -12.5047   -1.7243   54.4073 C.2     1  ZINC000618094467    0.3700
     27 O27       -12.6823   -1.4879   53.2364 O.2     1  ZINC000618094467   -0.4400
     28 C28       -12.4068   -0.6027   55.4179 C.3     1  ZINC000618094467   -0.1600
     29 H29       -13.2624   -0.6405   56.0922 H       1  ZINC000618094467    0.1100
     30 C30       -12.3820    0.7440   54.6923 C.3     1  ZINC000618094467   -0.1400
     31 C31       -11.1166   -0.7832   56.2185 C.3     1  ZINC000618094467    0.1400
     32 H32       -15.1548   -1.0593   57.3514 H       1  ZINC000618094467    0.0500
     33 H33       -16.8145   -1.7000   57.2941 H       1  ZINC000618094467    0.0600
     34 H34       -16.4090   -0.3778   58.4148 H       1  ZINC000618094467    0.0600
     35 H35       -16.5694   -2.5426   59.6133 H       1  ZINC000618094467    0.0700
     36 H36       -15.3151   -3.2241   58.5499 H       1  ZINC000618094467    0.0700
     37 H37       -14.6100   -3.5197   61.1407 H       1  ZINC000618094467    0.0700
     38 H38       -13.7875   -2.1300   61.8894 H       1  ZINC000618094467    0.0700
     39 H39       -15.5650   -2.1734   61.8070 H       1  ZINC000618094467    0.0700
     40 H40       -12.4530    0.9283   59.9768 H       1  ZINC000618094467    0.0900
     41 H41       -13.3148   -0.1464   61.1029 H       1  ZINC000618094467    0.1100
     42 H42       -12.2212    1.4554   62.7469 H       1  ZINC000618094467    0.1300
     43 H43       -10.3607    1.6281   64.3442 H       1  ZINC000618094467    0.1300
     44 H44        -8.3034    0.3193   63.9766 H       1  ZINC000618094467    0.1200
     45 H45        -8.1269   -1.1615   62.0249 H       1  ZINC000618094467    0.1200
     46 H46        -8.8937   -1.5699   59.7447 H       1  ZINC000618094467    0.0900
     47 H47       -10.0961   -2.6614   60.4651 H       1  ZINC000618094467    0.1000
     48 H48       -10.2215   -3.1932   55.0444 H       1  ZINC000618094467    0.0700
     49 H49       -11.0603   -4.2228   56.2333 H       1  ZINC000618094467    0.0900
     50 H50       -13.6642   -2.7613   56.5813 H       1  ZINC000618094467    0.0600
     51 H51       -14.4817   -3.5002   55.1834 H       1  ZINC000618094467    0.0600
     52 H52       -13.4251   -4.4880   56.2208 H       1  ZINC000618094467    0.0700
     53 H53       -13.2966    0.8602   54.1108 H       1  ZINC000618094467    0.0700
     54 H54       -12.3114    1.5494   55.4233 H       1  ZINC000618094467    0.0700
     55 H55       -11.5204    0.7817   54.0257 H       1  ZINC000618094467    0.0600
     56 H56       -11.1185   -0.1054   57.0722 H       1  ZINC000618094467    0.1100
     57 H57       -10.2583   -0.5694   55.5815 H       1  ZINC000618094467    0.0700
@<TRIPOS>BOND
     1     1     2    1
     2     1    32    1
     3     1    33    1
     4     1    34    1
     5     2     3    1
     6     2    35    1
     7     2    36    1
     8     3     4    1
     9     3     5    1
    10     3     6    1
    11     5    37    1
    12     5    38    1
    13     5    39    1
    14     6     7    2
    15     6     8   am
    16     8    17    1
    17     8     9    1
    18     9    10    1
    19     9    40    1
    20     9    41    1
    21    10    15   ar
    22    10    11   ar
    23    11    12   ar
    24    11    42    1
    25    12    13   ar
    26    12    43    1
    27    13    14   ar
    28    13    44    1
    29    14    15   ar
    30    14    45    1
    31    15    16    1
    32    16    17    1
    33    16    46    1
    34    16    47    1
    35    17    18    1
    36    17    19    1
    37    19    20    2
    38    19    21   am
    39    21    31    1
    40    21    22    1
    41    22    23    1
    42    22    48    1
    43    22    49    1
    44    23    24    1
    45    23    25    1
    46    23    26    1
    47    25    50    1
    48    25    51    1
    49    25    52    1
    50    26    27    2
    51    26    28    1
    52    28    29    1
    53    28    30    1
    54    28    31    1
    55    30    53    1
    56    30    54    1
    57    30    55    1
    58    31    56    1
    59    31    57    1
@<TRIPOS>SUBSTRUCTURE
     1 ZINC000618094467        1 TEMP              0 ****  ****    0 ROOT


##########                                Name:    ZINC001436455587
##########                DOCK_Rotatable_Bonds:                   9
##########                         Heavy_Atoms:                  21
##########                    Molecular_Weight:             378.693
##########                DOCK_Rotatable_Bonds:                   9
##########                       Formal_Charge:          -0.0200001
##########                     HBond_Acceptors:                   5
##########                        HBond_Donors:                   1
##########                         Heavy_Atoms:                  21
##########                          Grid_Score:          -28.425011
##########                     Grid_vdw_energy:          -28.038679
##########                      Grid_es_energy:           -0.386332
##########           Internal_energy_repulsive:            9.830010

@<TRIPOS>MOLECULE
ZINC001436455587
 42 42 1 0 0
SMALL
USER_CHARGES


@<TRIPOS>ATOM
      1 C1         -5.3763    1.4676   51.3930 C.3     1  ZINC001436455587   -0.1500
      2 C2         -6.7257    1.5589   52.1083 C.3     1  ZINC001436455587   -0.1300
      3 C3         -7.6109    0.3873   51.6786 C.3     1  ZINC001436455587   -0.1400
      4 C4         -8.9015    0.3952   52.5004 C.3     1  ZINC001436455587    0.0800
      5 H5         -8.6651    0.5925   53.5461 H       1  ZINC001436455587    0.0700
      6 C6         -9.5902   -0.9659   52.3814 C.3     1  ZINC001436455587    0.1200
      7 N7        -10.7322   -1.0171   53.2975 N.am    1  ZINC001436455587   -0.7200
      8 C8        -11.6013   -2.0453   53.2341 C.2     1  ZINC001436455587    0.5200
      9 O9        -11.4371   -2.9288   52.4198 O.2     1  ZINC001436455587   -0.5100
     10 C10       -12.7772   -2.0971   54.1754 C.3     1  ZINC001436455587    0.0600
     11 H11       -13.6860   -2.3044   53.6104 H       1  ZINC001436455587    0.1000
     12 C12       -12.9172   -0.7520   54.8909 C.3     1  ZINC001436455587   -0.1800
     13 O13       -12.5699   -3.1306   55.1402 O.3     1  ZINC001436455587   -0.2700
     14 C14       -13.3998   -3.1454   56.2168 C.ar    1  ZINC001436455587    0.1600
     15 C15       -14.7621   -3.3349   56.0407 C.ar    1  ZINC001436455587   -0.2000
     16 C16       -15.6041   -3.3501   57.1363 C.ar    1  ZINC001436455587   -0.0500
     17 C17       -15.0893   -3.1760   58.4084 C.ar    1  ZINC001436455587   -0.0700
     18 Cl18      -16.1497   -3.1950   59.7828 Cl      1  ZINC001436455587   -0.0600
     19 C19       -13.7300   -2.9871   58.5870 C.ar    1  ZINC001436455587   -0.0400
     20 C20       -12.8838   -2.9765   57.4944 C.ar    1  ZINC001436455587   -0.1200
     21 Br21      -11.0265   -2.7183   57.7385 Br      1  ZINC001436455587   -0.0100
     22 O22        -9.7734    1.4149   52.0085 O.3     1  ZINC001436455587   -0.3800
     23 C23        -9.9626    2.5043   52.9138 C.3     1  ZINC001436455587    0.0200
     24 H24        -4.8888    0.5285   51.6553 H       1  ZINC001436455587    0.0500
     25 H25        -5.5330    1.5068   50.3150 H       1  ZINC001436455587    0.0600
     26 H26        -4.7455    2.3022   51.6990 H       1  ZINC001436455587    0.0600
     27 H27        -6.5690    1.5196   53.1862 H       1  ZINC001436455587    0.0600
     28 H28        -7.2131    2.4979   51.8459 H       1  ZINC001436455587    0.0700
     29 H29        -7.8536    0.4842   50.6204 H       1  ZINC001436455587    0.0800
     30 H30        -7.0797   -0.5496   51.8453 H       1  ZINC001436455587    0.0800
     31 H31        -9.9384   -1.1086   51.3583 H       1  ZINC001436455587    0.0800
     32 H32        -8.8830   -1.7547   52.6377 H       1  ZINC001436455587    0.0800
     33 H33       -10.8630   -0.3110   53.9497 H       1  ZINC001436455587    0.4000
     34 H34       -13.7677   -0.7895   55.5718 H       1  ZINC001436455587    0.0800
     35 H35       -12.0084   -0.5446   55.4560 H       1  ZINC001436455587    0.0800
     36 H36       -13.0754    0.0364   54.1550 H       1  ZINC001436455587    0.0800
     37 H37       -15.1648   -3.4702   55.0478 H       1  ZINC001436455587    0.1500
     38 H38       -16.6652   -3.4977   56.9992 H       1  ZINC001436455587    0.1400
     39 H39       -13.3299   -2.8516   59.5809 H       1  ZINC001436455587    0.1500
     40 H40        -9.0177    3.0297   53.0526 H       1  ZINC001436455587    0.0500
     41 H41       -10.7039    3.1913   52.5056 H       1  ZINC001436455587    0.0900
     42 H42       -10.3105    2.1227   53.8737 H       1  ZINC001436455587    0.0400
@<TRIPOS>BOND
     1     1     2    1
     2     1    24    1
     3     1    25    1
     4     1    26    1
     5     2     3    1
     6     2    27    1
     7     2    28    1
     8     3     4    1
     9     3    29    1
    10     3    30    1
    11     4     5    1
    12     4     6    1
    13     4    22    1
    14     6     7    1
    15     6    31    1
    16     6    32    1
    17     7     8   am
    18     7    33    1
    19     8     9    2
    20     8    10    1
    21    10    11    1
    22    10    12    1
    23    10    13    1
    24    12    34    1
    25    12    35    1
    26    12    36    1
    27    13    14    1
    28    14    20   ar
    29    14    15   ar
    30    15    16   ar
    31    15    37    1
    32    16    17   ar
    33    16    38    1
    34    17    18    1
    35    17    19   ar
    36    19    20   ar
    37    19    39    1
    38    20    21    1
    39    22    23    1
    40    23    40    1
    41    23    41    1
    42    23    42    1
@<TRIPOS>SUBSTRUCTURE
     1 ZINC001436455587        1 TEMP              0 ****  ****    0 ROOT


##########                                Name:    ZINC000129637895
##########                DOCK_Rotatable_Bonds:                   7
##########                         Heavy_Atoms:                  26
##########                    Molecular_Weight:             374.464
##########                DOCK_Rotatable_Bonds:                   7
##########                       Formal_Charge:        -5.51343e-07
##########                     HBond_Acceptors:                   8
##########                        HBond_Donors:                   1
##########                         Heavy_Atoms:                  26
##########                          Grid_Score:          -28.421894
##########                     Grid_vdw_energy:          -27.412655
##########                      Grid_es_energy:           -1.009238
##########           Internal_energy_repulsive:           10.846437

@<TRIPOS>MOLECULE
ZINC000129637895
 48 50 1 0 0
SMALL
USER_CHARGES


@<TRIPOS>ATOM
      1 C1        -10.0069   -1.3049   60.7206 C.3     1  ZINC000129637895   -0.1500
      2 C2        -11.1034   -2.3036   60.3450 C.3     1  ZINC000129637895   -0.0500
      3 C3        -12.3968   -1.5658   60.1133 C.2     1  ZINC000129637895    0.0300
      4 C4        -12.8193   -1.2002   58.8896 C.2     1  ZINC000129637895   -0.0200
      5 N5        -12.1546   -1.4363   57.6870 N.am    1  ZINC000129637895   -0.5900
      6 C6        -12.3569   -2.5902   57.0205 C.2     1  ZINC000129637895    0.5000
      7 O7        -13.1189   -3.4234   57.4668 O.2     1  ZINC000129637895   -0.4800
      8 C8        -11.6439   -2.8437   55.7340 C.2     1  ZINC000129637895    0.5200
      9 O9        -10.5103   -3.2774   55.7435 O.2     1  ZINC000129637895   -0.5100
     10 N10       -12.2589   -2.5911   54.5616 N.am    1  ZINC000129637895   -0.5800
     11 C11       -13.6299   -2.0596   54.5275 C.3     1  ZINC000129637895    0.0800
     12 C12       -13.6513   -0.8260   53.6188 C.3     1  ZINC000129637895    0.0400
     13 N13       -13.0885   -1.1773   52.3081 N.3     1  ZINC000129637895   -0.4900
     14 C14       -13.2399   -0.1266   51.4004 C.ar    1  ZINC000129637895    0.1500
     15 C15       -12.6284    1.0969   51.6443 C.ar    1  ZINC000129637895   -0.2100
     16 C16       -12.7780    2.1359   50.7460 C.ar    1  ZINC000129637895   -0.0500
     17 C17       -13.5357    1.9615   49.6038 C.ar    1  ZINC000129637895   -0.2300
     18 C18       -14.1490    0.7413   49.3549 C.ar    1  ZINC000129637895    0.1500
     19 O19       -14.8936    0.5715   48.2308 O.3     1  ZINC000129637895   -0.3200
     20 C20       -14.1848    0.4381   46.9972 C.3     1  ZINC000129637895    0.0300
     21 C21       -13.9969   -0.3051   50.2505 C.ar    1  ZINC000129637895   -0.1700
     22 C22       -11.6791   -1.5751   52.4226 C.3     1  ZINC000129637895    0.0400
     23 C23       -11.5746   -2.8337   53.2825 C.3     1  ZINC000129637895    0.1100
     24 S24       -14.3626   -0.3708   59.0767 S.3     1  ZINC000129637895    0.2400
     25 C25       -14.2892   -0.5952   60.7698 C.2     1  ZINC000129637895   -0.0300
     26 N26       -13.2129   -1.2287   61.0916 N.2     1  ZINC000129637895   -0.4500
     27 H27        -9.8758   -0.5875   59.9105 H       1  ZINC000129637895    0.0600
     28 H28       -10.2921   -0.7773   61.6306 H       1  ZINC000129637895    0.0500
     29 H29        -9.0713   -1.8387   60.8882 H       1  ZINC000129637895    0.0700
     30 H30       -10.8181   -2.8314   59.4349 H       1  ZINC000129637895    0.0900
     31 H31       -11.2345   -3.0211   61.1550 H       1  ZINC000129637895    0.0700
     32 H32       -11.5467   -0.7702   57.3299 H       1  ZINC000129637895    0.4300
     33 H33       -14.3065   -2.8173   54.1323 H       1  ZINC000129637895    0.0900
     34 H34       -13.9387   -1.7782   55.5343 H       1  ZINC000129637895    0.1400
     35 H35       -14.6787   -0.4842   53.4937 H       1  ZINC000129637895    0.1000
     36 H36       -13.0558   -0.0319   54.0693 H       1  ZINC000129637895    0.0500
     37 H37       -12.0362    1.2359   52.5366 H       1  ZINC000129637895    0.1300
     38 H38       -12.3019    3.0862   50.9372 H       1  ZINC000129637895    0.1300
     39 H39       -13.6514    2.7759   48.9040 H       1  ZINC000129637895    0.1300
     40 H40       -13.5894    1.3339   46.8215 H       1  ZINC000129637895    0.0600
     41 H41       -13.5282   -0.4305   47.0476 H       1  ZINC000129637895    0.0600
     42 H42       -14.8963    0.3088   46.1816 H       1  ZINC000129637895    0.1000
     43 H43       -14.4731   -1.2553   50.0582 H       1  ZINC000129637895    0.1300
     44 H44       -11.2762   -1.7765   51.4301 H       1  ZINC000129637895    0.1000
     45 H45       -11.1109   -0.7706   52.8899 H       1  ZINC000129637895    0.0500
     46 H46       -10.5255   -3.0664   53.4650 H       1  ZINC000129637895    0.1100
     47 H47       -12.0538   -3.6679   52.7702 H       1  ZINC000129637895    0.0900
     48 H48       -15.0394   -0.2583   61.4699 H       1  ZINC000129637895    0.2000
@<TRIPOS>BOND
     1     1     2    1
     2     1    27    1
     3     1    28    1
     4     1    29    1
     5     2     3    1
     6     2    30    1
     7     2    31    1
     8     3    26    1
     9     3     4    2
    10     4     5    1
    11     4    24    1
    12     5     6   am
    13     5    32    1
    14     6     7    2
    15     6     8    1
    16     8     9    2
    17     8    10   am
    18    10    23    1
    19    10    11    1
    20    11    12    1
    21    11    33    1
    22    11    34    1
    23    12    13    1
    24    12    35    1
    25    12    36    1
    26    13    14    1
    27    13    22    1
    28    14    21   ar
    29    14    15   ar
    30    15    16   ar
    31    15    37    1
    32    16    17   ar
    33    16    38    1
    34    17    18   ar
    35    17    39    1
    36    18    19    1
    37    18    21   ar
    38    19    20    1
    39    20    40    1
    40    20    41    1
    41    20    42    1
    42    21    43    1
    43    22    23    1
    44    22    44    1
    45    22    45    1
    46    23    46    1
    47    23    47    1
    48    24    25    1
    49    25    26    2
    50    25    48    1
@<TRIPOS>SUBSTRUCTURE
     1 ZINC000129637895        1 TEMP              0 ****  ****    0 ROOT


##########                                Name:    ZINC001139743874
##########                DOCK_Rotatable_Bonds:                   5
##########                         Heavy_Atoms:                  28
##########                    Molecular_Weight:             382.506
##########                DOCK_Rotatable_Bonds:                   5
##########                       Formal_Charge:           0.0199992
##########                     HBond_Acceptors:                   6
##########                        HBond_Donors:                   0
##########                         Heavy_Atoms:                  28
##########                          Grid_Score:          -28.402477
##########                     Grid_vdw_energy:          -28.566624
##########                      Grid_es_energy:            0.164147
##########           Internal_energy_repulsive:           12.673867

@<TRIPOS>MOLECULE
ZINC001139743874
 58 61 1 0 0
SMALL
USER_CHARGES


@<TRIPOS>ATOM
      1 C1        -16.4096   -0.1937   55.1255 C.3     1  ZINC001139743874   -0.1800
      2 C2        -16.2854   -1.5693   54.4673 C.3     1  ZINC001139743874    0.1400
      3 C3        -16.7144   -2.6507   55.4609 C.3     1  ZINC001139743874   -0.1800
      4 C4        -17.1854   -1.6263   53.2313 C.3     1  ZINC001139743874   -0.1400
      5 O5        -14.9063   -1.7942   54.0726 O.3     1  ZINC001139743874   -0.3600
      6 C6        -13.9510   -1.2680   54.8620 C.2     1  ZINC001139743874    0.6500
      7 O7        -13.7851   -1.7003   55.9854 O.2     1  ZINC001139743874   -0.5700
      8 N8        -13.1788   -0.2619   54.4062 N.am    1  ZINC001139743874   -0.5900
      9 C9        -13.3603    0.2585   53.0882 C.3     1  ZINC001139743874    0.1000
     10 C10       -12.5989   -0.4886   51.9564 C.3     1  ZINC001139743874   -0.1300
     11 C11       -11.1796   -0.8782   52.4619 C.3     1  ZINC001139743874   -0.0900
     12 C12       -10.5808    0.1916   53.3147 C.3     1  ZINC001139743874   -0.0800
     13 C13        -9.1297    0.5685   52.9931 C.3     1  ZINC001139743874    0.0100
     14 N14        -9.7064    1.6300   52.1365 N.3     1  ZINC001139743874   -0.4700
     15 C15        -8.9743    2.8932   52.2990 C.3     1  ZINC001139743874    0.0600
     16 C16        -7.6565    2.8070   51.5732 C.ar    1  ZINC001139743874   -0.1200
     17 C17        -7.6189    2.9032   50.1835 C.ar    1  ZINC001139743874    0.1500
     18 N18        -6.4904    2.8326   49.5198 N.ar    1  ZINC001139743874   -0.4600
     19 C19        -5.3250    2.6654   50.1491 C.ar    1  ZINC001139743874    0.0800
     20 C20        -4.1136    2.5903   49.4328 C.ar    1  ZINC001139743874   -0.0400
     21 C21        -2.9568    2.4188   50.1367 C.ar    1  ZINC001139743874   -0.1600
     22 C22        -2.9944    2.3224   51.5268 C.ar    1  ZINC001139743874    0.1300
     23 N23        -4.1227    2.3926   52.1904 N.ar    1  ZINC001139743874   -0.4700
     24 C24        -5.2883    2.5600   51.5609 C.ar    1  ZINC001139743874    0.0800
     25 C25        -6.4988    2.6403   52.2775 C.ar    1  ZINC001139743874   -0.0400
     26 C26       -10.9512    1.6310   52.9387 C.3     1  ZINC001139743874    0.0000
     27 C27       -10.8156   -0.1373   54.7922 C.3     1  ZINC001139743874   -0.1300
     28 C28       -12.1159    0.3396   55.2721 C.3     1  ZINC001139743874    0.1400
     29 H29       -15.7685   -0.1530   56.0060 H       1  ZINC001139743874    0.0900
     30 H30       -16.1041    0.5767   54.4176 H       1  ZINC001139743874    0.0600
     31 H31       -17.4449   -0.0248   55.4218 H       1  ZINC001139743874    0.0700
     32 H32       -17.7496   -2.4819   55.7572 H       1  ZINC001139743874    0.0700
     33 H33       -16.6260   -3.6307   54.9919 H       1  ZINC001139743874    0.0600
     34 H34       -16.0732   -2.6101   56.3415 H       1  ZINC001139743874    0.0900
     35 H35       -16.8798   -0.8559   52.5234 H       1  ZINC001139743874    0.0700
     36 H36       -17.0969   -2.6063   52.7624 H       1  ZINC001139743874    0.0700
     37 H37       -18.2207   -1.4575   53.5276 H       1  ZINC001139743874    0.0800
     38 H38       -14.4250    0.2351   52.8560 H       1  ZINC001139743874    0.0700
     39 H39       -13.0387    1.3000   53.0856 H       1  ZINC001139743874    0.0900
     40 H40       -13.1476   -1.3897   51.6821 H       1  ZINC001139743874    0.0700
     41 H41       -12.5095    0.1625   51.0868 H       1  ZINC001139743874    0.0800
     42 H42       -11.2498   -1.7977   53.0429 H       1  ZINC001139743874    0.0600
     43 H43       -10.5318   -1.0513   51.6026 H       1  ZINC001139743874    0.0700
     44 H44        -8.5736    0.9485   53.8501 H       1  ZINC001139743874    0.0700
     45 H45        -8.5886   -0.1985   52.4389 H       1  ZINC001139743874    0.0900
     46 H46        -9.5643    3.7109   51.8851 H       1  ZINC001139743874    0.0600
     47 H47        -8.7943    3.0751   53.3586 H       1  ZINC001139743874    0.0900
     48 H48        -8.5421    3.0391   49.6398 H       1  ZINC001139743874    0.1700
     49 H49        -4.1009    2.6662   48.3555 H       1  ZINC001139743874    0.1500
     50 H50        -2.0122    2.3576   49.6166 H       1  ZINC001139743874    0.1500
     51 H51        -2.0712    2.1862   52.0705 H       1  ZINC001139743874    0.1700
     52 H52        -6.5109    2.5680   53.3550 H       1  ZINC001139743874    0.1400
     53 H53       -11.8595    1.7096   52.3411 H       1  ZINC001139743874    0.1000
     54 H54       -10.9320    2.3241   53.7797 H       1  ZINC001139743874    0.0700
     55 H55       -10.7632   -1.2178   54.9258 H       1  ZINC001139743874    0.0700
     56 H56       -10.0294    0.3282   55.3866 H       1  ZINC001139743874    0.0800
     57 H57       -12.1549    1.4270   55.2074 H       1  ZINC001139743874    0.0800
     58 H58       -12.2629    0.0272   56.3059 H       1  ZINC001139743874    0.1000
@<TRIPOS>BOND
     1     1     2    1
     2     1    29    1
     3     1    30    1
     4     1    31    1
     5     2     3    1
     6     2     4    1
     7     2     5    1
     8     3    32    1
     9     3    33    1
    10     3    34    1
    11     4    35    1
    12     4    36    1
    13     4    37    1
    14     5     6    1
    15     6     7    2
    16     6     8   am
    17     8    28    1
    18     8     9    1
    19     9    10    1
    20     9    38    1
    21     9    39    1
    22    10    11    1
    23    10    40    1
    24    10    41    1
    25    11    12    1
    26    11    42    1
    27    11    43    1
    28    12    26    1
    29    12    13    1
    30    12    27    1
    31    13    14    1
    32    13    44    1
    33    13    45    1
    34    14    15    1
    35    14    26    1
    36    15    16    1
    37    15    46    1
    38    15    47    1
    39    16    25   ar
    40    16    17   ar
    41    17    18   ar
    42    17    48    1
    43    18    19   ar
    44    19    24   ar
    45    19    20   ar
    46    20    21   ar
    47    20    49    1
    48    21    22   ar
    49    21    50    1
    50    22    23   ar
    51    22    51    1
    52    23    24   ar
    53    24    25   ar
    54    25    52    1
    55    26    53    1
    56    26    54    1
    57    27    28    1
    58    27    55    1
    59    27    56    1
    60    28    57    1
    61    28    58    1
@<TRIPOS>SUBSTRUCTURE
     1 ZINC001139743874        1 TEMP              0 ****  ****    0 ROOT


##########                                Name:    ZINC000826052721
##########                DOCK_Rotatable_Bonds:                   3
##########                         Heavy_Atoms:                  29
##########                    Molecular_Weight:             393.399
##########                DOCK_Rotatable_Bonds:                   3
##########                       Formal_Charge:        -4.47035e-07
##########                     HBond_Acceptors:                   9
##########                        HBond_Donors:                   2
##########                         Heavy_Atoms:                  29
##########                          Grid_Score:          -28.384398
##########                     Grid_vdw_energy:          -25.593798
##########                      Grid_es_energy:           -2.790600
##########           Internal_energy_repulsive:           19.123665

@<TRIPOS>MOLECULE
ZINC000826052721
 46 50 1 0 0
SMALL
USER_CHARGES


@<TRIPOS>ATOM
      1 C1         -8.7564   -2.0513   60.1899 C.3     1  ZINC000826052721   -0.0400
      2 N2         -9.4393   -0.8151   59.7855 N.4     1  ZINC000826052721   -0.3800
      3 H3         -8.8553   -0.3016   59.1427 H       1  ZINC000826052721    0.4300
      4 C4         -9.7072    0.0070   60.9690 C.3     1  ZINC000826052721    0.0500
      5 C5        -10.5366    1.2091   60.6020 C.ar    1  ZINC000826052721   -0.1300
      6 C6        -10.5649    2.2864   61.4745 C.ar    1  ZINC000826052721   -0.1000
      7 C7        -11.3178    3.4050   61.1776 C.ar    1  ZINC000826052721   -0.1000
      8 C8        -12.0478    3.4527   60.0049 C.ar    1  ZINC000826052721   -0.0800
      9 C9        -12.0197    2.3813   59.1340 C.ar    1  ZINC000826052721   -0.0800
     10 C10       -11.2632    1.2587   59.4308 C.ar    1  ZINC000826052721   -0.1200
     11 C11       -11.2563    0.1118   58.4526 C.3     1  ZINC000826052721    0.1100
     12 H12       -10.6216    0.3640   57.6031 H       1  ZINC000826052721    0.1100
     13 N13       -12.6255   -0.1374   57.9825 N.3     1  ZINC000826052721   -0.6200
     14 C14       -12.6692   -1.2359   57.1442 C.ar    1  ZINC000826052721    0.1600
     15 C15       -13.2790   -2.4289   57.5474 C.ar    1  ZINC000826052721   -0.0400
     16 C16       -13.8924   -2.5373   58.8870 C.2     1  ZINC000826052721    0.0700
     17 N17       -14.9639   -3.2614   59.2192 N.2     1  ZINC000826052721   -0.3800
     18 N18       -15.1723   -3.0883   60.4796 N.2     1  ZINC000826052721   -0.1600
     19 N19       -14.2865   -2.2822   60.9504 N.2     1  ZINC000826052721   -0.1700
     20 N20       -13.4879   -1.9260   60.0030 N.pl3   1  ZINC000826052721   -0.3400
     21 C21       -13.3065   -3.5190   56.6657 C.ar    1  ZINC000826052721    0.1800
     22 N22       -12.7667   -3.4533   55.4748 N.ar    1  ZINC000826052721   -0.4700
     23 C23       -12.1633   -2.3428   55.0304 C.ar    1  ZINC000826052721    0.0900
     24 C24       -11.5898   -2.3002   53.7466 C.ar    1  ZINC000826052721    0.1700
     25 F25       -11.6438   -3.3856   52.9440 F       1  ZINC000826052721   -0.1100
     26 C26       -10.9800   -1.1595   53.3143 C.ar    1  ZINC000826052721   -0.1900
     27 C27       -10.9137   -0.0292   54.1269 C.ar    1  ZINC000826052721    0.1300
     28 F28       -10.3025    1.0861   53.6710 F       1  ZINC000826052721   -0.1300
     29 C29       -11.4589   -0.0362   55.3783 C.ar    1  ZINC000826052721   -0.1500
     30 C30       -12.0935   -1.1929   55.8525 C.ar    1  ZINC000826052721   -0.0600
     31 C31       -10.7162   -1.1456   59.1352 C.3     1  ZINC000826052721    0.0000
     32 H32        -9.3900   -2.6068   60.8815 H       1  ZINC000826052721    0.1200
     33 H33        -8.5579   -2.6617   59.3089 H       1  ZINC000826052721    0.1300
     34 H34        -7.8148   -1.8028   60.6794 H       1  ZINC000826052721    0.1200
     35 H35        -8.7615    0.3398   61.3969 H       1  ZINC000826052721    0.1400
     36 H36       -10.2446   -0.5890   61.7065 H       1  ZINC000826052721    0.1400
     37 H37        -9.9946    2.2504   62.3910 H       1  ZINC000826052721    0.1300
     38 H38       -11.3362    4.2415   61.8604 H       1  ZINC000826052721    0.1300
     39 H39       -12.6385    4.3259   59.7700 H       1  ZINC000826052721    0.1300
     40 H40       -12.5893    2.4186   58.2172 H       1  ZINC000826052721    0.1400
     41 H41       -13.0062    0.6792   57.5285 H       1  ZINC000826052721    0.4100
     42 H42       -13.7814   -4.4372   56.9787 H       1  ZINC000826052721    0.1800
     43 H43       -10.5415   -1.1318   52.3277 H       1  ZINC000826052721    0.1600
     44 H44       -11.4014    0.8450   56.0002 H       1  ZINC000826052721    0.1400
     45 H45       -11.4300   -1.4913   59.8829 H       1  ZINC000826052721    0.1400
     46 H46       -10.5555   -1.9256   58.3908 H       1  ZINC000826052721    0.1400
@<TRIPOS>BOND
     1     1     2    1
     2     1    32    1
     3     1    33    1
     4     1    34    1
     5     2     3    1
     6     2    31    1
     7     2     4    1
     8     4     5    1
     9     4    35    1
    10     4    36    1
    11     5    10   ar
    12     5     6   ar
    13     6     7   ar
    14     6    37    1
    15     7     8   ar
    16     7    38    1
    17     8     9   ar
    18     8    39    1
    19     9    10   ar
    20     9    40    1
    21    10    11    1
    22    11    12    1
    23    11    13    1
    24    11    31    1
    25    13    14    1
    26    13    41    1
    27    14    30   ar
    28    14    15   ar
    29    15    16    1
    30    15    21   ar
    31    16    20    1
    32    16    17    2
    33    17    18    1
    34    18    19    2
    35    19    20    1
    36    21    22   ar
    37    21    42    1
    38    22    23   ar
    39    23    30   ar
    40    23    24   ar
    41    24    25    1
    42    24    26   ar
    43    26    27   ar
    44    26    43    1
    45    27    28    1
    46    27    29   ar
    47    29    30   ar
    48    29    44    1
    49    31    45    1
    50    31    46    1
@<TRIPOS>SUBSTRUCTURE
     1 ZINC000826052721        1 TEMP              0 ****  ****    0 ROOT


##########                                Name:    ZINC000854500114
##########                DOCK_Rotatable_Bonds:                   7
##########                         Heavy_Atoms:                  24
##########                    Molecular_Weight:             399.288
##########                DOCK_Rotatable_Bonds:                   7
##########                       Formal_Charge:          -0.0399992
##########                     HBond_Acceptors:                   7
##########                        HBond_Donors:                   2
##########                         Heavy_Atoms:                  24
##########                          Grid_Score:          -28.379400
##########                     Grid_vdw_energy:          -28.454699
##########                      Grid_es_energy:            0.075298
##########           Internal_energy_repulsive:           77.226883

@<TRIPOS>MOLECULE
ZINC000854500114
 47 49 1 0 0
SMALL
USER_CHARGES


@<TRIPOS>ATOM
      1 O1        -12.3138   -3.5770   54.3915 O.2     1  ZINC000854500114   -0.5800
      2 C2        -11.9401   -2.4267   54.2746 C.2     1  ZINC000854500114    0.6600
      3 N3        -11.5114   -1.7443   55.3550 N.am    1  ZINC000854500114   -0.7100
      4 C4        -11.5016   -2.3876   56.6712 C.3     1  ZINC000854500114    0.1600
      5 C5        -10.9789   -1.4023   57.7370 C.3     1  ZINC000854500114   -0.1400
      6 C6        -12.2627   -0.7870   58.3474 C.3     1  ZINC000854500114   -0.1300
      7 C7        -13.2338   -1.9930   58.3880 C.3     1  ZINC000854500114   -0.1300
      8 C8        -12.9352   -2.7631   57.0851 C.3     1  ZINC000854500114   -0.1300
      9 O9        -11.9491   -1.8355   53.0651 O.3     1  ZINC000854500114   -0.3600
     10 C10       -10.7723   -1.0685   52.6975 C.3     1  ZINC000854500114    0.1000
     11 C11       -11.0302    0.4171   52.9574 C.3     1  ZINC000854500114    0.1500
     12 H12       -11.1359    0.5877   54.0287 H       1  ZINC000854500114    0.0900
     13 C13       -12.3128    0.8489   52.2395 C.3     1  ZINC000854500114   -0.1300
     14 C14       -12.4906    2.3618   52.3870 C.3     1  ZINC000854500114   -0.1200
     15 C15       -11.3072    3.0820   51.7367 C.3     1  ZINC000854500114   -0.1400
     16 C16       -10.0132    2.6755   52.4488 C.3     1  ZINC000854500114    0.0900
     17 N17        -9.9061    1.2098   52.4410 N.am    1  ZINC000854500114   -0.6100
     18 C18        -8.8001    0.6046   51.9645 C.2     1  ZINC000854500114    0.5900
     19 O19        -8.7236   -0.6093   51.9634 O.2     1  ZINC000854500114   -0.4900
     20 C20        -7.6850    1.4126   51.4455 C.2     1  ZINC000854500114   -0.0300
     21 C21        -6.6035    1.8936   52.1629 C.2     1  ZINC000854500114   -0.1200
     22 C22        -5.8276    2.5954   51.2364 C.2     1  ZINC000854500114    0.0200
     23 Br23       -4.2036    3.4944   51.5976 Br      1  ZINC000854500114    0.0400
     24 N24        -6.4247    2.5196   50.0738 N.2     1  ZINC000854500114   -0.2400
     25 N25        -7.5070    1.8331   50.1581 N.pl3   1  ZINC000854500114   -0.3700
     26 H26       -11.2094   -0.8274   55.2611 H       1  ZINC000854500114    0.4000
     27 H27       -10.8746   -3.2789   56.6462 H       1  ZINC000854500114    0.0900
     28 H28       -10.4099   -1.9328   58.5005 H       1  ZINC000854500114    0.0800
     29 H29       -10.3678   -0.6278   57.2736 H       1  ZINC000854500114    0.0700
     30 H30       -12.0708   -0.4115   59.3526 H       1  ZINC000854500114    0.0700
     31 H31       -12.6544    0.0032   57.7070 H       1  ZINC000854500114    0.0700
     32 H32       -13.0288   -2.6187   59.2566 H       1  ZINC000854500114    0.0700
     33 H33       -14.2682   -1.6494   58.3995 H       1  ZINC000854500114    0.0700
     34 H34       -13.6383   -2.4668   56.3067 H       1  ZINC000854500114    0.0700
     35 H35       -13.0038   -3.8365   57.2618 H       1  ZINC000854500114    0.0800
     36 H36        -9.9221   -1.3994   53.2937 H       1  ZINC000854500114    0.1000
     37 H37       -10.5556   -1.2200   51.6401 H       1  ZINC000854500114    0.0700
     38 H38       -12.2422    0.5923   51.1825 H       1  ZINC000854500114    0.0800
     39 H39       -13.1674    0.3373   52.6823 H       1  ZINC000854500114    0.0900
     40 H40       -13.4153    2.6682   51.8982 H       1  ZINC000854500114    0.0800
     41 H41       -12.5363    2.6206   53.4449 H       1  ZINC000854500114    0.0700
     42 H42       -11.2460    2.8044   50.6844 H       1  ZINC000854500114    0.0700
     43 H43       -11.4460    4.1598   51.8215 H       1  ZINC000854500114    0.0800
     44 H44        -9.1584    3.1073   51.9282 H       1  ZINC000854500114    0.0800
     45 H45       -10.0351    3.0326   53.4783 H       1  ZINC000854500114    0.0800
     46 H46        -6.4022    1.7559   53.2149 H       1  ZINC000854500114    0.1700
     47 H47        -8.1095    1.6468   49.4211 H       1  ZINC000854500114    0.4500
@<TRIPOS>BOND
     1     1     2    2
     2     2     3   am
     3     2     9    1
     4     3     4    1
     5     3    26    1
     6     4     8    1
     7     4     5    1
     8     4    27    1
     9     5     6    1
    10     5    28    1
    11     5    29    1
    12     6     7    1
    13     6    30    1
    14     6    31    1
    15     7     8    1
    16     7    32    1
    17     7    33    1
    18     8    34    1
    19     8    35    1
    20     9    10    1
    21    10    11    1
    22    10    36    1
    23    10    37    1
    24    11    12    1
    25    11    17    1
    26    11    13    1
    27    13    14    1
    28    13    38    1
    29    13    39    1
    30    14    15    1
    31    14    40    1
    32    14    41    1
    33    15    16    1
    34    15    42    1
    35    15    43    1
    36    16    17    1
    37    16    44    1
    38    16    45    1
    39    17    18   am
    40    18    19    2
    41    18    20    1
    42    20    25    1
    43    20    21    2
    44    21    22    1
    45    21    46    1
    46    22    23    1
    47    22    24    2
    48    24    25    1
    49    25    47    1
@<TRIPOS>SUBSTRUCTURE
     1 ZINC000854500114        1 TEMP              0 ****  ****    0 ROOT


##########                                Name:    ZINC001045438664
##########                DOCK_Rotatable_Bonds:                   6
##########                         Heavy_Atoms:                  26
##########                    Molecular_Weight:             352.439
##########                DOCK_Rotatable_Bonds:                   6
##########                       Formal_Charge:          -0.0099999
##########                     HBond_Acceptors:                   7
##########                        HBond_Donors:                   2
##########                         Heavy_Atoms:                  26
##########                          Grid_Score:          -28.377361
##########                     Grid_vdw_energy:          -27.924311
##########                      Grid_es_energy:           -0.453051
##########           Internal_energy_repulsive:            7.471016

@<TRIPOS>MOLECULE
ZINC001045438664
 50 53 1 0 0
SMALL
USER_CHARGES


@<TRIPOS>ATOM
      1 C1        -10.1623    1.5064   57.5005 C.3     1  ZINC001045438664   -0.1100
      2 C2        -10.1663    1.0489   56.0645 C.ar    1  ZINC001045438664    0.2100
      3 C3         -9.3520    1.6624   55.1335 C.ar    1  ZINC001045438664   -0.3000
      4 C4         -9.3900    1.2036   53.8148 C.ar    1  ZINC001045438664    0.4500
      5 N5         -8.5917    1.7858   52.8438 N.pl3   1  ZINC001045438664   -0.7100
      6 C6         -8.8458    3.1637   52.4160 C.3     1  ZINC001045438664    0.1500
      7 H7         -8.5646    3.8499   53.2149 H       1  ZINC001045438664    0.0900
      8 C8        -10.3328    3.3331   52.0982 C.3     1  ZINC001045438664   -0.1300
      9 C9        -10.5982    4.7722   51.6515 C.3     1  ZINC001045438664   -0.1200
     10 C10        -9.7713    5.0787   50.4013 C.3     1  ZINC001045438664   -0.1200
     11 C11        -8.2843    4.9094   50.7191 C.3     1  ZINC001045438664   -0.1300
     12 C12        -8.0189    3.4703   51.1657 C.3     1  ZINC001045438664    0.1400
     13 H13        -8.3002    2.7842   50.3669 H       1  ZINC001045438664    0.1000
     14 N14        -6.5952    3.3081   51.4701 N.am    1  ZINC001045438664   -0.7200
     15 C15        -5.7318    2.9665   50.4931 C.2     1  ZINC001045438664    0.5700
     16 O16        -6.1349    2.7915   49.3597 O.2     1  ZINC001045438664   -0.5200
     17 C17        -4.2948    2.8045   50.7999 C.ar    1  ZINC001045438664   -0.2500
     18 C18        -3.8226    2.9131   52.1128 C.ar    1  ZINC001045438664    0.1900
     19 N19        -2.5301    2.7606   52.3418 N.ar    1  ZINC001045438664   -0.5200
     20 C20        -1.6911    2.5102   51.3557 C.ar    1  ZINC001045438664    0.3200
     21 N21        -2.0932    2.4005   50.1046 N.ar    1  ZINC001045438664   -0.5200
     22 C22        -3.3689    2.5327   49.7862 C.ar    1  ZINC001045438664    0.2100
     23 N23       -10.2042    0.1986   53.5067 N.ar    1  ZINC001045438664   -0.5800
     24 C24       -10.9645   -0.3578   54.4280 C.ar    1  ZINC001045438664    0.4000
     25 C25       -11.8737   -1.4950   54.0389 C.3     1  ZINC001045438664   -0.1100
     26 C26       -12.7149   -1.3251   52.7723 C.3     1  ZINC001045438664   -0.1500
     27 C27       -11.5204   -2.2810   52.7747 C.3     1  ZINC001045438664   -0.1500
     28 N28       -10.9479    0.0489   55.6813 N.ar    1  ZINC001045438664   -0.5600
     29 H29        -9.4095    0.9484   58.0574 H       1  ZINC001045438664    0.0800
     30 H30        -9.9303    2.5706   57.5421 H       1  ZINC001045438664    0.0800
     31 H31       -11.1440    1.3310   57.9405 H       1  ZINC001045438664    0.0800
     32 H32        -8.7023    2.4769   55.4176 H       1  ZINC001045438664    0.1400
     33 H33        -7.8646    1.2810   52.4470 H       1  ZINC001045438664    0.4100
     34 H34       -10.6141    2.6470   51.2993 H       1  ZINC001045438664    0.0700
     35 H35       -10.9219    3.1147   52.9890 H       1  ZINC001045438664    0.0700
     36 H36       -11.6575    4.8929   51.4250 H       1  ZINC001045438664    0.0700
     37 H37       -10.3169    5.4583   52.4504 H       1  ZINC001045438664    0.0700
     38 H38       -10.0525    4.3926   49.6023 H       1  ZINC001045438664    0.0700
     39 H39        -9.9603    6.1040   50.0829 H       1  ZINC001045438664    0.0700
     40 H40        -7.6952    5.1278   49.8283 H       1  ZINC001045438664    0.0800
     41 H41        -8.0030    5.5955   51.5179 H       1  ZINC001045438664    0.0700
     42 H42        -6.2737    3.4466   52.3748 H       1  ZINC001045438664    0.4000
     43 H43        -4.5035    3.1183   52.9256 H       1  ZINC001045438664    0.1700
     44 H44        -0.6413    2.3916   51.5798 H       1  ZINC001045438664    0.2100
     45 H45        -3.6905    2.4414   48.7593 H       1  ZINC001045438664    0.1800
     46 H46       -12.3167   -2.0473   54.8676 H       1  ZINC001045438664    0.1300
     47 H47       -13.7120   -1.7657   52.7677 H       1  ZINC001045438664    0.1000
     48 H48       -12.6110   -0.3910   52.2205 H       1  ZINC001045438664    0.1100
     49 H49       -10.6304   -1.9757   52.2244 H       1  ZINC001045438664    0.1000
     50 H50       -11.7314   -3.3504   52.7716 H       1  ZINC001045438664    0.1000
@<TRIPOS>BOND
     1     1     2    1
     2     1    29    1
     3     1    30    1
     4     1    31    1
     5     2    28   ar
     6     2     3   ar
     7     3     4   ar
     8     3    32    1
     9     4     5    1
    10     4    23   ar
    11     5     6    1
    12     5    33    1
    13     6     7    1
    14     6    12    1
    15     6     8    1
    16     8     9    1
    17     8    34    1
    18     8    35    1
    19     9    10    1
    20     9    36    1
    21     9    37    1
    22    10    11    1
    23    10    38    1
    24    10    39    1
    25    11    12    1
    26    11    40    1
    27    11    41    1
    28    12    13    1
    29    12    14    1
    30    14    15   am
    31    14    42    1
    32    15    16    2
    33    15    17    1
    34    17    22   ar
    35    17    18   ar
    36    18    19   ar
    37    18    43    1
    38    19    20   ar
    39    20    21   ar
    40    20    44    1
    41    21    22   ar
    42    22    45    1
    43    23    24   ar
    44    24    25    1
    45    24    28   ar
    46    25    27    1
    47    25    26    1
    48    25    46    1
    49    26    27    1
    50    26    47    1
    51    26    48    1
    52    27    49    1
    53    27    50    1
@<TRIPOS>SUBSTRUCTURE
     1 ZINC001045438664        1 TEMP              0 ****  ****    0 ROOT


##########                                Name:    ZINC000945148121
##########                DOCK_Rotatable_Bonds:                   6
##########                         Heavy_Atoms:                  24
##########                    Molecular_Weight:             332.446
##########                DOCK_Rotatable_Bonds:                   6
##########                       Formal_Charge:           0.0100009
##########                     HBond_Acceptors:                   6
##########                        HBond_Donors:                   2
##########                         Heavy_Atoms:                  24
##########                          Grid_Score:          -28.353939
##########                     Grid_vdw_energy:          -28.377365
##########                      Grid_es_energy:            0.023426
##########           Internal_energy_repulsive:           18.423626

@<TRIPOS>MOLECULE
ZINC000945148121
 52 54 1 0 0
SMALL
USER_CHARGES


@<TRIPOS>ATOM
      1 O1         -8.3488   -0.8103   62.9991 O.2     1  ZINC000945148121   -0.5100
      2 C2         -9.0645    0.1685   62.9730 C.2     1  ZINC000945148121    0.5200
      3 C3         -9.2593    0.9930   64.2193 C.3     1  ZINC000945148121   -0.0500
      4 C4         -8.0230    0.9071   65.0767 C.2     1  ZINC000945148121    0.0100
      5 C5         -6.9620    1.7346   65.0209 C.2     1  ZINC000945148121   -0.0500
      6 N6         -6.0716    1.3013   65.9659 N.pl3   1  ZINC000945148121   -0.5700
      7 C7         -6.6198    0.2234   66.5669 C.2     1  ZINC000945148121    0.1800
      8 N8         -7.7891   -0.0035   66.0334 N.2     1  ZINC000945148121   -0.4700
      9 N9         -9.6814    0.5220   61.8280 N.am    1  ZINC000945148121   -0.7300
     10 C10        -9.4920   -0.2796   60.6164 C.3     1  ZINC000945148121    0.1500
     11 C11       -10.4339   -1.4854   60.6506 C.3     1  ZINC000945148121   -0.1400
     12 C12       -10.2087   -2.3397   59.3990 C.3     1  ZINC000945148121    0.1100
     13 N13       -10.3614   -1.4882   58.2114 N.am    1  ZINC000945148121   -0.6100
     14 C14       -11.2133   -1.8317   57.2251 C.2     1  ZINC000945148121    0.5200
     15 O15       -11.8639   -2.8514   57.3135 O.2     1  ZINC000945148121   -0.5400
     16 C16       -11.3574   -0.9486   56.0125 C.3     1  ZINC000945148121   -0.1000
     17 C17       -11.9288   -1.7459   54.8715 C.3     1  ZINC000945148121   -0.1200
     18 C18       -11.3795   -1.2958   53.5044 C.3     1  ZINC000945148121   -0.1200
     19 C19       -11.2818    0.2363   53.3747 C.3     1  ZINC000945148121   -0.1200
     20 C20       -12.4801    0.9404   53.9514 C.3     1  ZINC000945148121   -0.1200
     21 C21       -12.1642    1.3306   55.4098 C.3     1  ZINC000945148121   -0.1200
     22 C22       -12.3211    0.2134   56.3293 C.3     1  ZINC000945148121   -0.1000
     23 C23        -9.5682   -0.2548   58.1197 C.3     1  ZINC000945148121    0.1100
     24 C24        -9.8006    0.5761   59.3856 C.3     1  ZINC000945148121   -0.1400
     25 H25        -9.4384    2.0322   63.9432 H       1  ZINC000945148121    0.1000
     26 H26       -10.1152    0.6125   64.7767 H       1  ZINC000945148121    0.1000
     27 H27        -6.8375    2.5778   64.3576 H       1  ZINC000945148121    0.1800
     28 H28        -5.2081    1.6951   66.1664 H       1  ZINC000945148121    0.4200
     29 H29        -6.1674   -0.3529   67.3603 H       1  ZINC000945148121    0.2100
     30 H30       -10.2507    1.3070   61.8062 H       1  ZINC000945148121    0.4000
     31 H31        -8.4599   -0.6266   60.5681 H       1  ZINC000945148121    0.0900
     32 H32       -10.2292   -2.0818   61.5397 H       1  ZINC000945148121    0.0800
     33 H33       -11.4672   -1.1395   60.6737 H       1  ZINC000945148121    0.0700
     34 H34        -9.2035   -2.7607   59.4199 H       1  ZINC000945148121    0.0700
     35 H35       -10.9435   -3.1443   59.3686 H       1  ZINC000945148121    0.1000
     36 H36       -10.3825   -0.5497   55.7321 H       1  ZINC000945148121    0.1000
     37 H37       -11.6860   -2.7981   55.0201 H       1  ZINC000945148121    0.0700
     38 H38       -13.0130   -1.6330   54.8704 H       1  ZINC000945148121    0.0700
     39 H39       -10.3867   -1.7242   53.3660 H       1  ZINC000945148121    0.0600
     40 H40       -12.0354   -1.6737   52.7201 H       1  ZINC000945148121    0.0700
     41 H41       -10.3874    0.5780   53.8958 H       1  ZINC000945148121    0.0600
     42 H42       -11.1939    0.4962   52.3198 H       1  ZINC000945148121    0.0600
     43 H43       -12.6923    1.8378   53.3701 H       1  ZINC000945148121    0.0600
     44 H44       -13.3422    0.2740   53.9291 H       1  ZINC000945148121    0.0700
     45 H45       -11.1369    1.6910   55.4642 H       1  ZINC000945148121    0.0600
     46 H46       -12.8348    2.1344   55.7133 H       1  ZINC000945148121    0.0600
     47 H47       -13.3462   -0.1519   56.2693 H       1  ZINC000945148121    0.0700
     48 H48       -12.1314    0.5624   57.3444 H       1  ZINC000945148121    0.0700
     49 H49        -8.5108   -0.5058   58.0363 H       1  ZINC000945148121    0.0700
     50 H50        -9.8805    0.3163   57.2454 H       1  ZINC000945148121    0.1000
     51 H51       -10.8399    0.9026   59.4208 H       1  ZINC000945148121    0.0700
     52 H52        -9.1452    1.4470   59.3745 H       1  ZINC000945148121    0.0800
@<TRIPOS>BOND
     1     1     2    2
     2     2     3    1
     3     2     9   am
     4     3     4    1
     5     3    25    1
     6     3    26    1
     7     4     8    1
     8     4     5    2
     9     5     6    1
    10     5    27    1
    11     6     7    1
    12     6    28    1
    13     7     8    2
    14     7    29    1
    15     9    10    1
    16     9    30    1
    17    10    24    1
    18    10    11    1
    19    10    31    1
    20    11    12    1
    21    11    32    1
    22    11    33    1
    23    12    13    1
    24    12    34    1
    25    12    35    1
    26    13    14   am
    27    13    23    1
    28    14    15    2
    29    14    16    1
    30    16    22    1
    31    16    17    1
    32    16    36    1
    33    17    18    1
    34    17    37    1
    35    17    38    1
    36    18    19    1
    37    18    39    1
    38    18    40    1
    39    19    20    1
    40    19    41    1
    41    19    42    1
    42    20    21    1
    43    20    43    1
    44    20    44    1
    45    21    22    1
    46    21    45    1
    47    21    46    1
    48    22    47    1
    49    22    48    1
    50    23    24    1
    51    23    49    1
    52    23    50    1
    53    24    51    1
    54    24    52    1
@<TRIPOS>SUBSTRUCTURE
     1 ZINC000945148121        1 TEMP              0 ****  ****    0 ROOT


##########                                Name:    ZINC000866717058
##########                DOCK_Rotatable_Bonds:                   7
##########                         Heavy_Atoms:                  25
##########                    Molecular_Weight:             380.388
##########                DOCK_Rotatable_Bonds:                   7
##########                       Formal_Charge:                0.04
##########                     HBond_Acceptors:                  10
##########                        HBond_Donors:                   1
##########                         Heavy_Atoms:                  25
##########                          Grid_Score:          -28.343685
##########                     Grid_vdw_energy:          -27.066782
##########                      Grid_es_energy:           -1.276904
##########           Internal_energy_repulsive:            7.880402

@<TRIPOS>MOLECULE
ZINC000866717058
 44 45 1 0 0
SMALL
USER_CHARGES


@<TRIPOS>ATOM
      1 C1        -11.3089   -1.6090   51.8260 C.3     1  ZINC000866717058   -0.1100
      2 C2        -12.4716   -1.2928   52.7311 C.ar    1  ZINC000866717058    0.2400
      3 N3        -12.5221   -1.8204   53.9360 N.ar    1  ZINC000866717058   -0.5500
      4 C4        -13.5239   -1.5710   54.7656 C.ar    1  ZINC000866717058    0.3500
      5 O5        -13.5290   -2.1385   55.9960 O.3     1  ZINC000866717058   -0.2800
      6 C6        -13.5910   -3.5651   56.0521 C.3     1  ZINC000866717058    0.0500
      7 H7        -13.4272   -3.9754   55.0557 H       1  ZINC000866717058    0.1300
      8 C8        -12.5103   -4.0855   57.0020 C.3     1  ZINC000866717058   -0.1700
      9 C9        -14.9680   -3.9961   56.5611 C.3     1  ZINC000866717058    0.4600
     10 F10       -14.9645   -5.3734   56.8061 F       1  ZINC000866717058   -0.1700
     11 F11       -15.2622   -3.3124   57.7457 F       1  ZINC000866717058   -0.1700
     12 F12       -15.9364   -3.6964   55.5969 F       1  ZINC000866717058   -0.1700
     13 C13       -14.5708   -0.7343   54.3921 C.ar    1  ZINC000866717058   -0.1900
     14 C14       -14.5599   -0.1587   53.1380 C.ar    1  ZINC000866717058    0.0000
     15 C15       -13.4817   -0.4389   52.2859 C.ar    1  ZINC000866717058   -0.2300
     16 C16       -13.4219    0.1518   50.9344 C.2     1  ZINC000866717058    0.5800
     17 O17       -12.7431    1.1401   50.7324 O.2     1  ZINC000866717058   -0.5200
     18 N18       -14.1198   -0.4044   49.9243 N.am    1  ZINC000866717058   -0.7400
     19 C19       -14.0617    0.1828   48.5835 C.3     1  ZINC000866717058    0.1400
     20 C20       -15.4125    0.0011   47.8883 C.3     1  ZINC000866717058   -0.5700
     21 H21       -16.2196    0.3969   48.5048 H       1  ZINC000866717058    0.1500
     22 C22       -15.4071    0.6733   46.4911 C.3     1  ZINC000866717058   -0.1100
     23 C23       -16.5632    0.0429   45.6948 C.3     1  ZINC000866717058   -0.1200
     24 C24       -16.4974   -1.4888   45.8566 C.3     1  ZINC000866717058   -0.5900
     25 S25       -15.7055   -1.7630   47.4870 S.o2    1  ZINC000866717058    2.3700
     26 O26       -14.4562   -2.4139   47.3001 O.2     1  ZINC000866717058   -0.9200
     27 O27       -16.6604   -2.3050   48.3890 O.2     1  ZINC000866717058   -0.9300
     28 H28       -10.5666   -0.8140   51.8969 H       1  ZINC000866717058    0.0900
     29 H29       -10.8590   -2.5543   52.1294 H       1  ZINC000866717058    0.0700
     30 H30       -11.6602   -1.6874   50.7971 H       1  ZINC000866717058    0.1100
     31 H31       -12.5576   -5.1736   57.0449 H       1  ZINC000866717058    0.0900
     32 H32       -11.5294   -3.7785   56.6395 H       1  ZINC000866717058    0.0900
     33 H33       -12.6742   -3.6752   57.9985 H       1  ZINC000866717058    0.0800
     34 H34       -15.3833   -0.5376   55.0760 H       1  ZINC000866717058    0.1600
     35 H35       -15.3598    0.4943   52.8218 H       1  ZINC000866717058    0.1500
     36 H36       -14.6603   -1.1936   50.0853 H       1  ZINC000866717058    0.4000
     37 H37       -13.8335    1.2457   48.6619 H       1  ZINC000866717058    0.1000
     38 H38       -13.2844   -0.3137   48.0026 H       1  ZINC000866717058    0.1000
     39 H39       -15.5657    1.7469   46.5927 H       1  ZINC000866717058    0.1100
     40 H40       -14.4594    0.4815   45.9882 H       1  ZINC000866717058    0.0900
     41 H41       -17.5152    0.4112   46.0772 H       1  ZINC000866717058    0.0900
     42 H42       -16.4678    0.3045   44.6410 H       1  ZINC000866717058    0.1000
     43 H43       -17.5012   -1.9137   45.8499 H       1  ZINC000866717058    0.1400
     44 H44       -15.8944   -1.9278   45.0618 H       1  ZINC000866717058    0.1400
@<TRIPOS>BOND
     1     1     2    1
     2     1    28    1
     3     1    29    1
     4     1    30    1
     5     2    15   ar
     6     2     3   ar
     7     3     4   ar
     8     4     5    1
     9     4    13   ar
    10     5     6    1
    11     6     7    1
    12     6     8    1
    13     6     9    1
    14     8    31    1
    15     8    32    1
    16     8    33    1
    17     9    10    1
    18     9    11    1
    19     9    12    1
    20    13    14   ar
    21    13    34    1
    22    14    15   ar
    23    14    35    1
    24    15    16    1
    25    16    17    2
    26    16    18   am
    27    18    19    1
    28    18    36    1
    29    19    20    1
    30    19    37    1
    31    19    38    1
    32    20    21    1
    33    20    25    1
    34    20    22    1
    35    22    23    1
    36    22    39    1
    37    22    40    1
    38    23    24    1
    39    23    41    1
    40    23    42    1
    41    24    25    1
    42    24    43    1
    43    24    44    1
    44    25    26    2
    45    25    27    2
@<TRIPOS>SUBSTRUCTURE
     1 ZINC000866717058        1 TEMP              0 ****  ****    0 ROOT


##########                                Name:    ZINC000561219098
##########                DOCK_Rotatable_Bonds:                   4
##########                         Heavy_Atoms:                  28
##########                    Molecular_Weight:             423.273
##########                DOCK_Rotatable_Bonds:                   4
##########                       Formal_Charge:          0.00999953
##########                     HBond_Acceptors:                   9
##########                        HBond_Donors:                   1
##########                         Heavy_Atoms:                  28
##########                          Grid_Score:          -28.338249
##########                     Grid_vdw_energy:          -26.872858
##########                      Grid_es_energy:           -1.465391
##########           Internal_energy_repulsive:           10.644319

@<TRIPOS>MOLECULE
ZINC000561219098
 45 48 1 0 0
SMALL
USER_CHARGES


@<TRIPOS>ATOM
      1 C1        -15.7456   -3.1424   60.1831 C.3     1  ZINC000561219098    0.0700
      2 N2        -14.7855   -2.1260   60.6207 N.pl3   1  ZINC000561219098   -0.4500
      3 C3        -14.8018   -1.4874   61.8260 C.2     1  ZINC000561219098   -0.0100
      4 C4        -13.7683   -0.6256   61.8669 C.2     1  ZINC000561219098   -0.1700
      5 C5        -13.0790   -0.7331   60.6328 C.2     1  ZINC000561219098   -0.1100
      6 C6        -11.8701    0.0290   60.2280 C.2     1  ZINC000561219098    0.1600
      7 N7        -11.2795    0.9686   60.9371 N.2     1  ZINC000561219098   -0.2700
      8 N8        -10.1758    1.4457   60.2195 N.pl3   1  ZINC000561219098   -0.4700
      9 C9        -10.1130    0.7593   59.0387 C.2     1  ZINC000561219098    0.0300
     10 C10        -9.1086    0.9380   57.9776 C.2     1  ZINC000561219098    0.5900
     11 O11        -8.0586    0.3261   58.0248 O.2     1  ZINC000561219098   -0.5000
     12 N12        -9.3526    1.7798   56.9538 N.am    1  ZINC000561219098   -0.6100
     13 C13       -10.6155    2.5309   56.8751 C.3     1  ZINC000561219098    0.0500
     14 C14       -11.2132    2.3270   55.4782 C.3     1  ZINC000561219098    0.0500
     15 O15       -10.2256    2.6406   54.4933 O.3     1  ZINC000561219098   -0.3700
     16 C16        -9.0711    1.7984   54.5332 C.3     1  ZINC000561219098    0.1200
     17 H17        -9.3750    0.7583   54.4152 H       1  ZINC000561219098    0.0900
     18 C18        -8.1322    2.1782   53.4174 C.ar    1  ZINC000561219098   -0.0500
     19 C19        -7.6135    3.4576   53.3567 C.ar    1  ZINC000561219098   -0.1000
     20 C20        -6.7505    3.8068   52.3320 C.ar    1  ZINC000561219098    0.1200
     21 F21        -6.2430    5.0574   52.2725 F       1  ZINC000561219098   -0.1200
     22 C22        -6.4074    2.8730   51.3679 C.ar    1  ZINC000561219098   -0.0600
     23 Cl23       -5.3249    3.3093   50.0827 Cl      1  ZINC000561219098   -0.0300
     24 C24        -6.9273    1.5929   51.4300 C.ar    1  ZINC000561219098   -0.0700
     25 C25        -7.7852    1.2439   52.4574 C.ar    1  ZINC000561219098   -0.0300
     26 Cl26       -8.4371   -0.3631   52.5353 Cl      1  ZINC000561219098   -0.0400
     27 C27        -8.3614    1.9795   55.8846 C.3     1  ZINC000561219098    0.0900
     28 C28       -11.1615   -0.1351   59.0291 C.2     1  ZINC000561219098   -0.1700
     29 C29       -13.7288   -1.6698   59.8921 C.2     1  ZINC000561219098    0.0300
     30 H30       -15.3889   -4.1296   60.4771 H       1  ZINC000561219098    0.0800
     31 H31       -16.7130   -2.9523   60.6478 H       1  ZINC000561219098    0.0900
     32 H32       -15.8491   -3.1015   59.0988 H       1  ZINC000561219098    0.0900
     33 H33       -15.5225   -1.6464   62.6145 H       1  ZINC000561219098    0.1700
     34 H34       -13.5117    0.0271   62.6884 H       1  ZINC000561219098    0.1400
     35 H35        -9.5643    2.1409   60.5087 H       1  ZINC000561219098    0.4400
     36 H36       -11.3102    2.1611   57.6293 H       1  ZINC000561219098    0.1000
     37 H37       -10.4231    3.5910   57.0409 H       1  ZINC000561219098    0.0900
     38 H38       -11.5249    1.2888   55.3637 H       1  ZINC000561219098    0.0700
     39 H39       -12.0747    2.9826   55.3516 H       1  ZINC000561219098    0.1200
     40 H40        -7.8818    4.1853   54.1084 H       1  ZINC000561219098    0.1600
     41 H41        -6.6604    0.8645   50.6785 H       1  ZINC000561219098    0.1600
     42 H42        -7.9427    2.9839   55.9477 H       1  ZINC000561219098    0.0900
     43 H43        -7.5645    1.2422   55.9825 H       1  ZINC000561219098    0.1100
     44 H44       -11.3986   -0.8313   58.2382 H       1  ZINC000561219098    0.1600
     45 H45       -13.4587   -1.9908   58.8968 H       1  ZINC000561219098    0.1700
@<TRIPOS>BOND
     1     1     2    1
     2     1    30    1
     3     1    31    1
     4     1    32    1
     5     2    29    1
     6     2     3    1
     7     3     4    2
     8     3    33    1
     9     4     5    1
    10     4    34    1
    11     5     6    1
    12     5    29    2
    13     6    28    1
    14     6     7    2
    15     7     8    1
    16     8     9    1
    17     8    35    1
    18     9    10    1
    19     9    28    2
    20    10    11    2
    21    10    12   am
    22    12    27    1
    23    12    13    1
    24    13    14    1
    25    13    36    1
    26    13    37    1
    27    14    15    1
    28    14    38    1
    29    14    39    1
    30    15    16    1
    31    16    17    1
    32    16    18    1
    33    16    27    1
    34    18    25   ar
    35    18    19   ar
    36    19    20   ar
    37    19    40    1
    38    20    21    1
    39    20    22   ar
    40    22    23    1
    41    22    24   ar
    42    24    25   ar
    43    24    41    1
    44    25    26    1
    45    27    42    1
    46    27    43    1
    47    28    44    1
    48    29    45    1
@<TRIPOS>SUBSTRUCTURE
     1 ZINC000561219098        1 TEMP              0 ****  ****    0 ROOT


##########                                Name:    ZINC000291574087
##########                DOCK_Rotatable_Bonds:                   8
##########                         Heavy_Atoms:                  23
##########                    Molecular_Weight:             387.249
##########                DOCK_Rotatable_Bonds:                   8
##########                       Formal_Charge:          -0.0400007
##########                     HBond_Acceptors:                   6
##########                        HBond_Donors:                   2
##########                         Heavy_Atoms:                  23
##########                          Grid_Score:          -28.329782
##########                     Grid_vdw_energy:          -28.569593
##########                      Grid_es_energy:            0.239812
##########           Internal_energy_repulsive:           22.834787

@<TRIPOS>MOLECULE
ZINC000291574087
 43 44 1 0 0
SMALL
USER_CHARGES


@<TRIPOS>ATOM
      1 C1        -14.7461   -1.0064   55.6190 C.3     1  ZINC000291574087    0.0200
      2 O2        -13.5141   -1.3123   56.2752 O.3     1  ZINC000291574087   -0.3700
      3 C3        -12.9472   -2.5668   55.8917 C.3     1  ZINC000291574087    0.1400
      4 C4        -11.7545   -2.8850   56.7956 C.3     1  ZINC000291574087   -0.1500
      5 C5        -12.4790   -2.4915   54.4371 C.3     1  ZINC000291574087    0.0900
      6 N6        -11.5232   -1.3914   54.2880 N.am    1  ZINC000291574087   -0.6900
      7 C7        -10.7436   -1.3200   53.1909 C.2     1  ZINC000291574087    0.5100
      8 O8        -10.8325   -2.1678   52.3272 O.2     1  ZINC000291574087   -0.5100
      9 C9         -9.7705   -0.1975   53.0381 C.2     1  ZINC000291574087    0.5100
     10 O10        -9.5264    0.5268   53.9811 O.2     1  ZINC000291574087   -0.4900
     11 N11        -9.1631    0.0111   51.8532 N.am    1  ZINC000291574087   -0.6400
     12 C12        -8.2518    1.0623   51.7101 C.ar    1  ZINC000291574087    0.1300
     13 C13        -6.9000    0.7933   51.5433 C.ar    1  ZINC000291574087   -0.1000
     14 C14        -6.0020    1.8335   51.4016 C.ar    1  ZINC000291574087   -0.0400
     15 C15        -4.5348    1.5413   51.2206 C.3     1  ZINC000291574087   -0.1300
     16 C16        -6.4474    3.1430   51.4254 C.ar    1  ZINC000291574087   -0.0900
     17 Br17       -5.2137    4.5628   51.2298 Br      1  ZINC000291574087   -0.0300
     18 C18        -7.7939    3.4163   51.5914 C.ar    1  ZINC000291574087   -0.1000
     19 C19        -8.6987    2.3800   51.7288 C.ar    1  ZINC000291574087    0.0700
     20 F20       -10.0131    2.6465   51.8910 F       1  ZINC000291574087   -0.1300
     21 C21       -14.0013   -3.6669   56.0320 C.3     1  ZINC000291574087   -0.1900
     22 C22       -13.6134   -4.9209   56.8179 C.3     1  ZINC000291574087   -0.1700
     23 C23       -14.5884   -3.9094   57.4239 C.3     1  ZINC000291574087   -0.1600
     24 H24       -15.1112   -0.0389   55.9640 H       1  ZINC000291574087    0.0900
     25 H25       -14.5848   -0.9705   54.5415 H       1  ZINC000291574087    0.0400
     26 H26       -15.4822   -1.7761   55.8508 H       1  ZINC000291574087    0.0500
     27 H27       -12.0881   -2.9386   57.8319 H       1  ZINC000291574087    0.0700
     28 H28       -11.3222   -3.8419   56.5032 H       1  ZINC000291574087    0.0800
     29 H29       -11.0036   -2.1013   56.6957 H       1  ZINC000291574087    0.0700
     30 H30       -11.9986   -3.4302   54.1610 H       1  ZINC000291574087    0.0900
     31 H31       -13.3371   -2.3177   53.7877 H       1  ZINC000291574087    0.0800
     32 H32       -11.4513   -0.7144   54.9789 H       1  ZINC000291574087    0.4200
     33 H33        -9.3580   -0.5677   51.0997 H       1  ZINC000291574087    0.4300
     34 H34        -6.5508   -0.2285   51.5246 H       1  ZINC000291574087    0.1600
     35 H35        -4.3119    1.4451   50.1580 H       1  ZINC000291574087    0.0800
     36 H36        -3.9471    2.3565   51.6427 H       1  ZINC000291574087    0.0800
     37 H37        -4.2840    0.6109   51.7301 H       1  ZINC000291574087    0.0800
     38 H38        -8.1386    4.4397   51.6099 H       1  ZINC000291574087    0.1500
     39 H39       -14.6650   -3.7938   55.1767 H       1  ZINC000291574087    0.1100
     40 H40       -14.0217   -5.8733   56.4797 H       1  ZINC000291574087    0.1000
     41 H41       -12.6072   -4.9622   57.2350 H       1  ZINC000291574087    0.1000
     42 H42       -14.2236   -3.2854   58.2397 H       1  ZINC000291574087    0.1000
     43 H43       -15.6382   -4.1963   57.4843 H       1  ZINC000291574087    0.1000
@<TRIPOS>BOND
     1     1     2    1
     2     1    24    1
     3     1    25    1
     4     1    26    1
     5     2     3    1
     6     3     4    1
     7     3     5    1
     8     3    21    1
     9     4    27    1
    10     4    28    1
    11     4    29    1
    12     5     6    1
    13     5    30    1
    14     5    31    1
    15     6     7   am
    16     6    32    1
    17     7     8    2
    18     7     9    1
    19     9    10    2
    20     9    11   am
    21    11    12    1
    22    11    33    1
    23    12    19   ar
    24    12    13   ar
    25    13    14   ar
    26    13    34    1
    27    14    15    1
    28    14    16   ar
    29    15    35    1
    30    15    36    1
    31    15    37    1
    32    16    17    1
    33    16    18   ar
    34    18    19   ar
    35    18    38    1
    36    19    20    1
    37    21    23    1
    38    21    22    1
    39    21    39    1
    40    22    23    1
    41    22    40    1
    42    22    41    1
    43    23    42    1
    44    23    43    1
@<TRIPOS>SUBSTRUCTURE
     1 ZINC000291574087        1 TEMP              0 ****  ****    0 ROOT


##########                                Name:    ZINC000859202493
##########                DOCK_Rotatable_Bonds:                  11
##########                         Heavy_Atoms:                  25
##########                    Molecular_Weight:             382.404
##########                DOCK_Rotatable_Bonds:                  11
##########                       Formal_Charge:          -0.0200009
##########                     HBond_Acceptors:                  10
##########                        HBond_Donors:                   3
##########                         Heavy_Atoms:                  25
##########                          Grid_Score:          -28.318226
##########                     Grid_vdw_energy:          -27.314724
##########                      Grid_es_energy:           -1.003503
##########           Internal_energy_repulsive:           15.173671

@<TRIPOS>MOLECULE
ZINC000859202493
 46 46 1 0 0
SMALL
USER_CHARGES


@<TRIPOS>ATOM
      1 C1         -0.3802    3.8361   51.0080 C.3     1  ZINC000859202493   -0.1500
      2 C2         -1.1430    4.4126   52.2025 C.3     1  ZINC000859202493   -0.1200
      3 C3         -2.6338    4.4885   51.8671 C.3     1  ZINC000859202493   -0.1000
      4 H4         -2.7570    4.7585   50.8183 H       1  ZINC000859202493    0.0700
      5 C5         -3.3015    5.5464   52.7479 C.3     1  ZINC000859202493   -0.1600
      6 C6         -3.2841    3.1274   52.1230 C.3     1  ZINC000859202493   -0.1200
      7 C7         -4.2447    2.7979   50.9787 C.3     1  ZINC000859202493    0.1600
      8 H8         -4.8647    1.9462   51.2587 H       1  ZINC000859202493    0.1000
      9 C9         -3.4422    2.4532   49.7224 C.3     1  ZINC000859202493    0.0500
     10 O10        -2.8837    1.1448   49.8580 O.3     1  ZINC000859202493   -0.5700
     11 N11        -5.0994    3.9568   50.7095 N.am    1  ZINC000859202493   -1.1000
     12 S12        -6.7298    3.7529   50.5026 S.o2    1  ZINC000859202493    2.6900
     13 O13        -7.2890    5.0563   50.4134 O.2     1  ZINC000859202493   -0.9500
     14 O14        -6.8858    2.7692   49.4891 O.2     1  ZINC000859202493   -0.9500
     15 C15        -7.3591    3.0421   51.9871 C.ar    1  ZINC000859202493   -0.6600
     16 C16        -7.0480    3.6081   53.2095 C.ar    1  ZINC000859202493   -0.0300
     17 C17        -7.5395    3.0529   54.3770 C.ar    1  ZINC000859202493   -0.1100
     18 C18        -8.3433    1.9312   54.3249 C.ar    1  ZINC000859202493   -0.0600
     19 C19        -8.6580    1.3605   53.0983 C.ar    1  ZINC000859202493    0.1200
     20 N20        -9.4726    0.2242   53.0421 N.am    1  ZINC000859202493   -0.6500
     21 C21       -10.8069    0.3576   52.9066 C.2     1  ZINC000859202493    0.4800
     22 O22       -11.3015    1.4625   52.8335 O.2     1  ZINC000859202493   -0.4500
     23 C23       -11.6841   -0.8663   52.8461 C.3     1  ZINC000859202493    0.4600
     24 F24       -10.9691   -1.9247   52.2754 F       1  ZINC000859202493   -0.1500
     25 F25       -12.0842   -1.2177   54.1398 F       1  ZINC000859202493   -0.1600
     26 F26       -12.8133   -0.5925   52.0670 F       1  ZINC000859202493   -0.1600
     27 C27        -8.1672    1.9234   51.9277 C.ar    1  ZINC000859202493   -0.0300
     28 H28         0.6818    3.7821   51.2470 H       1  ZINC000859202493    0.0500
     29 H29        -0.7541    2.8365   50.7864 H       1  ZINC000859202493    0.0500
     30 H30        -0.5250    4.4790   50.1399 H       1  ZINC000859202493    0.0600
     31 H31        -0.9982    3.7696   53.0707 H       1  ZINC000859202493    0.0600
     32 H32        -0.7692    5.4122   52.4242 H       1  ZINC000859202493    0.0600
     33 H33        -4.3637    5.6004   52.5090 H       1  ZINC000859202493    0.0500
     34 H34        -3.1783    5.2763   53.7967 H       1  ZINC000859202493    0.0600
     35 H35        -2.8383    6.5160   52.5656 H       1  ZINC000859202493    0.0600
     36 H36        -2.5115    2.3607   52.1810 H       1  ZINC000859202493    0.0800
     37 H37        -3.8356    3.1591   53.0627 H       1  ZINC000859202493    0.0800
     38 H38        -4.0991    2.4795   48.8530 H       1  ZINC000859202493    0.0600
     39 H39        -2.6396    3.1793   49.5935 H       1  ZINC000859202493    0.0600
     40 H40        -3.5323    0.4311   49.7878 H       1  ZINC000859202493    0.3800
     41 H41        -4.7105    4.8435   50.6525 H       1  ZINC000859202493    0.4200
     42 H42        -6.4196    4.4853   53.2530 H       1  ZINC000859202493    0.1500
     43 H43        -7.2942    3.4969   55.3305 H       1  ZINC000859202493    0.1400
     44 H44        -8.7265    1.4979   55.2369 H       1  ZINC000859202493    0.1400
     45 H45        -9.0769   -0.6596   53.1005 H       1  ZINC000859202493    0.4200
     46 H46        -8.4101    1.4820   50.9724 H       1  ZINC000859202493    0.1500
@<TRIPOS>BOND
     1     1     2    1
     2     1    28    1
     3     1    29    1
     4     1    30    1
     5     2     3    1
     6     2    31    1
     7     2    32    1
     8     3     4    1
     9     3     5    1
    10     3     6    1
    11     5    33    1
    12     5    34    1
    13     5    35    1
    14     6     7    1
    15     6    36    1
    16     6    37    1
    17     7     8    1
    18     7     9    1
    19     7    11    1
    20     9    10    1
    21     9    38    1
    22     9    39    1
    23    10    40    1
    24    11    12   am
    25    11    41    1
    26    12    13    2
    27    12    14    2
    28    12    15    1
    29    15    27   ar
    30    15    16   ar
    31    16    17   ar
    32    16    42    1
    33    17    18   ar
    34    17    43    1
    35    18    19   ar
    36    18    44    1
    37    19    20    1
    38    19    27   ar
    39    20    21   am
    40    20    45    1
    41    21    22    2
    42    21    23    1
    43    23    24    1
    44    23    25    1
    45    23    26    1
    46    27    46    1
@<TRIPOS>SUBSTRUCTURE
     1 ZINC000859202493        1 TEMP              0 ****  ****    0 ROOT


##########                                Name:    ZINC000822449555
##########                DOCK_Rotatable_Bonds:                   5
##########                         Heavy_Atoms:                  27
##########                    Molecular_Weight:             366.383
##########                DOCK_Rotatable_Bonds:                   5
##########                       Formal_Charge:          -0.0100009
##########                     HBond_Acceptors:                  10
##########                        HBond_Donors:                   2
##########                         Heavy_Atoms:                  27
##########                          Grid_Score:          -28.312185
##########                     Grid_vdw_energy:          -26.727100
##########                      Grid_es_energy:           -1.585085
##########           Internal_energy_repulsive:            7.657913

@<TRIPOS>MOLECULE
ZINC000822449555
 45 48 1 0 0
SMALL
USER_CHARGES


@<TRIPOS>ATOM
      1 C1         -8.3895    3.0114   54.0090 C.3     1  ZINC000822449555   -0.1100
      2 C2         -8.8383    1.7484   53.3199 C.ar    1  ZINC000822449555    0.1400
      3 N3        -10.0783    1.3259   53.4757 N.ar    1  ZINC000822449555   -0.5000
      4 C4        -10.5159    0.2225   52.8897 C.ar    1  ZINC000822449555    0.3000
      5 N5        -11.8333   -0.1838   53.0838 N.3     1  ZINC000822449555   -0.4700
      6 C6        -12.7629    0.9418   52.9096 C.3     1  ZINC000822449555    0.0200
      7 C7        -14.1999    0.4397   53.0724 C.3     1  ZINC000822449555    0.0600
      8 O8        -14.3394   -0.1847   54.3515 O.3     1  ZINC000822449555   -0.3800
      9 C9        -13.4495   -1.2857   54.5549 C.3     1  ZINC000822449555    0.0600
     10 C10       -12.0048   -0.8010   54.4071 C.3     1  ZINC000822449555    0.0300
     11 C11        -9.6746   -0.5352   52.0821 C.ar    1  ZINC000822449555   -0.1700
     12 C12        -8.3678   -0.1230   51.8958 C.ar    1  ZINC000822449555   -0.0500
     13 C13        -7.9446    1.0468   52.5247 C.ar    1  ZINC000822449555    0.0600
     14 N14        -6.6293    1.5022   52.3643 N.am    1  ZINC000822449555   -0.6600
     15 C15        -6.2144    1.9543   51.1643 C.2     1  ZINC000822449555    0.5700
     16 O16        -6.9814    1.9668   50.2209 O.2     1  ZINC000822449555   -0.5100
     17 C17        -4.8279    2.4344   50.9952 C.ar    1  ZINC000822449555   -0.1800
     18 C18        -3.8818    2.2459   52.0119 C.ar    1  ZINC000822449555   -0.0100
     19 C19        -2.5978    2.7120   51.8082 C.ar    1  ZINC000822449555   -0.1300
     20 C20        -2.2875    3.3493   50.6077 C.ar    1  ZINC000822449555    0.2300
     21 C21        -0.9108    3.8528   50.3810 C.2     1  ZINC000822449555    0.2100
     22 N22         0.1151    3.7383   51.2016 N.2     1  ZINC000822449555   -0.2500
     23 N23         1.1308    4.3020   50.6439 N.pl3   1  ZINC000822449555   -0.2200
     24 N24         0.7817    4.7700   49.4966 N.2     1  ZINC000822449555   -0.0400
     25 N25        -0.4656    4.5080   49.2989 N.2     1  ZINC000822449555   -0.2500
     26 N26        -3.2078    3.5112   49.6647 N.ar    1  ZINC000822449555   -0.4500
     27 C27        -4.4397    3.0773   49.8176 C.ar    1  ZINC000822449555    0.1400
     28 H28        -8.5758    3.8660   53.3586 H       1  ZINC000822449555    0.0800
     29 H29        -8.9445    3.1347   54.9390 H       1  ZINC000822449555    0.0800
     30 H30        -7.3236    2.9469   54.2277 H       1  ZINC000822449555    0.0700
     31 H31       -12.5563    1.7040   53.6609 H       1  ZINC000822449555    0.0600
     32 H32       -12.6366    1.3673   51.9141 H       1  ZINC000822449555    0.1000
     33 H33       -14.8896    1.2807   53.0008 H       1  ZINC000822449555    0.1100
     34 H34       -14.4239   -0.2834   52.2880 H       1  ZINC000822449555    0.0600
     35 H35       -13.5965   -1.6924   55.5554 H       1  ZINC000822449555    0.1000
     36 H36       -13.6516   -2.0588   53.8136 H       1  ZINC000822449555    0.0600
     37 H37       -11.3251   -1.6475   54.5047 H       1  ZINC000822449555    0.1000
     38 H38       -11.7862   -0.0666   55.1823 H       1  ZINC000822449555    0.0600
     39 H39       -10.0373   -1.4346   51.6066 H       1  ZINC000822449555    0.1400
     40 H40        -7.6921   -0.6918   51.2743 H       1  ZINC000822449555    0.1500
     41 H41        -6.0174    1.4922   53.1169 H       1  ZINC000822449555    0.4100
     42 H42        -4.1504    1.7488   52.9323 H       1  ZINC000822449555    0.1600
     43 H43        -1.8431    2.5844   52.5701 H       1  ZINC000822449555    0.1600
     44 H44         2.0192    4.3640   51.0283 H       1  ZINC000822449555    0.4800
     45 H45        -5.1609    3.2271   49.0278 H       1  ZINC000822449555    0.1700
@<TRIPOS>BOND
     1     1     2    1
     2     1    28    1
     3     1    29    1
     4     1    30    1
     5     2    13   ar
     6     2     3   ar
     7     3     4   ar
     8     4     5    1
     9     4    11   ar
    10     5    10    1
    11     5     6    1
    12     6     7    1
    13     6    31    1
    14     6    32    1
    15     7     8    1
    16     7    33    1
    17     7    34    1
    18     8     9    1
    19     9    10    1
    20     9    35    1
    21     9    36    1
    22    10    37    1
    23    10    38    1
    24    11    12   ar
    25    11    39    1
    26    12    13   ar
    27    12    40    1
    28    13    14    1
    29    14    15   am
    30    14    41    1
    31    15    16    2
    32    15    17    1
    33    17    27   ar
    34    17    18   ar
    35    18    19   ar
    36    18    42    1
    37    19    20   ar
    38    19    43    1
    39    20    21    1
    40    20    26   ar
    41    21    25    1
    42    21    22    2
    43    22    23    1
    44    23    24    1
    45    23    44    1
    46    24    25    2
    47    26    27   ar
    48    27    45    1
@<TRIPOS>SUBSTRUCTURE
     1 ZINC000822449555        1 TEMP              0 ****  ****    0 ROOT


##########                                Name:    ZINC000433533595
##########                DOCK_Rotatable_Bonds:                  10
##########                         Heavy_Atoms:                  24
##########                    Molecular_Weight:             397.312
##########                DOCK_Rotatable_Bonds:                  10
##########                       Formal_Charge:          0.00999916
##########                     HBond_Acceptors:                   5
##########                        HBond_Donors:                   1
##########                         Heavy_Atoms:                  24
##########                          Grid_Score:          -28.307407
##########                     Grid_vdw_energy:          -27.235319
##########                      Grid_es_energy:           -1.072088
##########           Internal_energy_repulsive:           15.831046

@<TRIPOS>MOLECULE
ZINC000433533595
 49 50 1 0 0
SMALL
USER_CHARGES


@<TRIPOS>ATOM
      1 C1        -11.6503    1.4476   64.0858 C.3     1  ZINC000433533595   -0.1500
      2 C2        -10.4840    0.7018   63.4343 C.3     1  ZINC000433533595   -0.1200
      3 C3        -10.8628    0.3124   62.0040 C.3     1  ZINC000433533595   -0.1300
      4 C4         -9.6934   -0.4259   61.3497 C.3     1  ZINC000433533595    0.1000
      5 N5         -9.9993   -0.6716   59.9382 N.am    1  ZINC000433533595   -0.5500
      6 C6        -10.7822   -1.7119   59.5896 C.2     1  ZINC000433533595    0.5100
      7 O7        -11.2335   -2.4450   60.4449 O.2     1  ZINC000433533595   -0.5100
      8 C8        -11.0941   -1.9624   58.1508 C.2     1  ZINC000433533595    0.5000
      9 O9        -10.5091   -2.8377   57.5464 O.2     1  ZINC000433533595   -0.4900
     10 N10       -12.0249   -1.2166   57.5233 N.am    1  ZINC000433533595   -0.6300
     11 C11       -12.3170   -1.4513   56.1757 C.ar    1  ZINC000433533595    0.1200
     12 C12       -11.3687   -1.1779   55.2004 C.ar    1  ZINC000433533595   -0.0600
     13 C13       -11.6602   -1.4107   53.8688 C.ar    1  ZINC000433533595   -0.1100
     14 Br14      -10.3665   -1.0381   52.5409 Br      1  ZINC000433533595   -0.0400
     15 C15       -12.8958   -1.9161   53.5061 C.ar    1  ZINC000433533595   -0.0600
     16 C16       -13.8456   -2.1909   54.4727 C.ar    1  ZINC000433533595   -0.1900
     17 C17       -13.5597   -1.9659   55.8091 C.ar    1  ZINC000433533595    0.1300
     18 O18       -14.4930   -2.2358   56.7605 O.3     1  ZINC000433533595   -0.3100
     19 C19       -14.9356   -3.5902   56.8694 C.3     1  ZINC000433533595    0.0800
     20 C20       -13.7223   -4.5212   56.9128 C.3     1  ZINC000433533595   -0.1500
     21 C21       -15.7534   -3.7579   58.1516 C.3     1  ZINC000433533595   -0.1800
     22 C22        -9.4544    0.2134   58.9058 C.3     1  ZINC000433533595    0.0600
     23 C23       -10.3498    1.3475   58.4030 C.3     1  ZINC000433533595   -0.1900
     24 C24        -9.1524    1.6599   59.3028 C.3     1  ZINC000433533595   -0.1800
     25 H25       -12.5286    0.8024   64.1054 H       1  ZINC000433533595    0.0500
     26 H26       -11.3804    1.7249   65.1048 H       1  ZINC000433533595    0.0500
     27 H27       -11.8726    2.3468   63.5113 H       1  ZINC000433533595    0.0500
     28 H28        -9.6057    1.3469   63.4148 H       1  ZINC000433533595    0.0700
     29 H29       -10.2616   -0.1976   64.0089 H       1  ZINC000433533595    0.0600
     30 H30       -11.7375   -0.3376   62.0239 H       1  ZINC000433533595    0.0600
     31 H31       -11.0911    1.2112   61.4312 H       1  ZINC000433533595    0.0700
     32 H32        -8.7918    0.1819   61.4256 H       1  ZINC000433533595    0.1100
     33 H33        -9.5342   -1.3769   61.8579 H       1  ZINC000433533595    0.0800
     34 H34       -12.4922   -0.5171   58.0062 H       1  ZINC000433533595    0.4300
     35 H35       -10.4035   -0.7830   55.4811 H       1  ZINC000433533595    0.1600
     36 H36       -13.1193   -2.0962   52.4649 H       1  ZINC000433533595    0.1400
     37 H37       -14.8092   -2.5854   54.1859 H       1  ZINC000433533595    0.1500
     38 H38       -15.5550   -3.8403   56.0081 H       1  ZINC000433533595    0.0800
     39 H39       -13.1030   -4.2710   57.7741 H       1  ZINC000433533595    0.0700
     40 H40       -14.0600   -5.5543   56.9959 H       1  ZINC000433533595    0.0800
     41 H41       -13.1397   -4.4018   55.9994 H       1  ZINC000433533595    0.0700
     42 H42       -15.1340   -3.5077   59.0129 H       1  ZINC000433533595    0.0700
     43 H43       -16.6178   -3.0946   58.1206 H       1  ZINC000433533595    0.0600
     44 H44       -16.0910   -4.7910   58.2346 H       1  ZINC000433533595    0.0800
     45 H45        -8.7884   -0.2600   58.1844 H       1  ZINC000433533595    0.1400
     46 H46       -10.2732    1.6203   57.3505 H       1  ZINC000433533595    0.0900
     47 H47       -11.3443    1.4351   58.8404 H       1  ZINC000433533595    0.1400
     48 H48        -9.3592    1.9529   60.3320 H       1  ZINC000433533595    0.1000
     49 H49        -8.2880    2.1381   58.8422 H       1  ZINC000433533595    0.1000
@<TRIPOS>BOND
     1     1     2    1
     2     1    25    1
     3     1    26    1
     4     1    27    1
     5     2     3    1
     6     2    28    1
     7     2    29    1
     8     3     4    1
     9     3    30    1
    10     3    31    1
    11     4     5    1
    12     4    32    1
    13     4    33    1
    14     5     6   am
    15     5    22    1
    16     6     7    2
    17     6     8    1
    18     8     9    2
    19     8    10   am
    20    10    11    1
    21    10    34    1
    22    11    17   ar
    23    11    12   ar
    24    12    13   ar
    25    12    35    1
    26    13    14    1
    27    13    15   ar
    28    15    16   ar
    29    15    36    1
    30    16    17   ar
    31    16    37    1
    32    17    18    1
    33    18    19    1
    34    19    20    1
    35    19    21    1
    36    19    38    1
    37    20    39    1
    38    20    40    1
    39    20    41    1
    40    21    42    1
    41    21    43    1
    42    21    44    1
    43    22    24    1
    44    22    23    1
    45    22    45    1
    46    23    24    1
    47    23    46    1
    48    23    47    1
    49    24    48    1
    50    24    49    1
@<TRIPOS>SUBSTRUCTURE
     1 ZINC000433533595        1 TEMP              0 ****  ****    0 ROOT


##########                                Name:    ZINC000484424341
##########                DOCK_Rotatable_Bonds:                   7
##########                         Heavy_Atoms:                  26
##########                    Molecular_Weight:             359.425
##########                DOCK_Rotatable_Bonds:                   7
##########                       Formal_Charge:          -0.0100009
##########                     HBond_Acceptors:                   7
##########                        HBond_Donors:                   1
##########                         Heavy_Atoms:                  26
##########                          Grid_Score:          -28.268637
##########                     Grid_vdw_energy:          -28.816614
##########                      Grid_es_energy:            0.547977
##########           Internal_energy_repulsive:           14.498260

@<TRIPOS>MOLECULE
ZINC000484424341
 51 53 1 0 0
SMALL
USER_CHARGES


@<TRIPOS>ATOM
      1 C1         -2.7825    2.1770   50.2124 C.3     1  ZINC000484424341    0.0300
      2 O2         -3.7129    2.5621   51.2263 O.3     1  ZINC000484424341   -0.3800
      3 C3         -5.0622    2.6669   50.7676 C.3     1  ZINC000484424341    0.1300
      4 H4         -5.2121    1.9940   49.9233 H       1  ZINC000484424341    0.0700
      5 C5         -5.3415    4.1057   50.3289 C.3     1  ZINC000484424341   -0.1700
      6 C6         -6.0027    2.2903   51.8832 C.ar    1  ZINC000484424341   -0.0700
      7 C7         -5.9745    2.9892   53.0759 C.ar    1  ZINC000484424341   -0.1000
      8 C8         -6.8359    2.6470   54.1024 C.ar    1  ZINC000484424341   -0.1000
      9 C9         -7.7274    1.6054   53.9392 C.ar    1  ZINC000484424341   -0.1100
     10 C10        -7.7587    0.9008   52.7420 C.ar    1  ZINC000484424341    0.1400
     11 N11        -8.6599   -0.1535   52.5733 N.am    1  ZINC000484424341   -0.6400
     12 C12        -9.9821    0.0596   52.7243 C.2     1  ZINC000484424341    0.5100
     13 O13       -10.3900    1.1673   53.0067 O.2     1  ZINC000484424341   -0.4900
     14 C14       -10.9455   -1.0674   52.5440 C.2     1  ZINC000484424341    0.5200
     15 O15       -11.2147   -1.4630   51.4286 O.2     1  ZINC000484424341   -0.5200
     16 N16       -11.5157   -1.6451   53.6199 N.am    1  ZINC000484424341   -0.5800
     17 C17       -12.4762   -2.7577   53.5868 C.3     1  ZINC000484424341    0.1100
     18 C18       -12.8311   -3.1004   55.0490 C.3     1  ZINC000484424341   -0.1500
     19 C19       -11.6213   -2.5381   55.8411 C.3     1  ZINC000484424341    0.1500
     20 H20       -10.7890   -3.2421   55.8351 H       1  ZINC000484424341    0.1100
     21 N21       -12.0052   -2.1950   57.2126 N.am    1  ZINC000484424341   -0.6100
     22 C22       -11.3736   -2.7538   58.4138 C.3     1  ZINC000484424341    0.1000
     23 C23       -11.7776   -1.8107   59.5686 C.3     1  ZINC000484424341   -0.1300
     24 C24       -13.0984   -1.2081   59.0361 C.3     1  ZINC000484424341   -0.1600
     25 C25       -12.9775   -1.3237   57.5326 C.2     1  ZINC000484424341    0.5200
     26 O26       -13.6629   -0.7232   56.7324 O.2     1  ZINC000484424341   -0.5200
     27 C27       -11.2747   -1.2704   55.0252 C.3     1  ZINC000484424341    0.0900
     28 C28        -6.8959    1.2508   51.7111 C.ar    1  ZINC000484424341   -0.1300
     29 H29        -2.7931    2.9149   49.4103 H       1  ZINC000484424341    0.0400
     30 H30        -1.7816    2.1199   50.6405 H       1  ZINC000484424341    0.0900
     31 H31        -3.0630    1.2022   49.8133 H       1  ZINC000484424341    0.0400
     32 H32        -5.1916    4.7786   51.1732 H       1  ZINC000484424341    0.0700
     33 H33        -4.6612    4.3781   49.5220 H       1  ZINC000484424341    0.0600
     34 H34        -6.3708    4.1856   49.9789 H       1  ZINC000484424341    0.0700
     35 H35        -5.2778    3.8041   53.2063 H       1  ZINC000484424341    0.1300
     36 H36        -6.8108    3.1948   55.0328 H       1  ZINC000484424341    0.1300
     37 H37        -8.3996    1.3384   54.7413 H       1  ZINC000484424341    0.1300
     38 H38        -8.3339   -1.0387   52.3475 H       1  ZINC000484424341    0.4200
     39 H39       -13.3745   -2.4559   53.0482 H       1  ZINC000484424341    0.0800
     40 H40       -12.0243   -3.6233   53.1023 H       1  ZINC000484424341    0.0800
     41 H41       -13.7532   -2.6027   55.3489 H       1  ZINC000484424341    0.0900
     42 H42       -12.9122   -4.1791   55.1835 H       1  ZINC000484424341    0.0900
     43 H43       -11.7455   -3.7610   58.6017 H       1  ZINC000484424341    0.0800
     44 H44       -10.2897   -2.7665   58.2988 H       1  ZINC000484424341    0.0800
     45 H45       -11.9472   -2.3705   60.4884 H       1  ZINC000484424341    0.0900
     46 H46       -11.0274   -1.0344   59.7189 H       1  ZINC000484424341    0.0800
     47 H47       -13.9523   -1.7802   59.3991 H       1  ZINC000484424341    0.1100
     48 H48       -13.1862   -0.1622   59.3297 H       1  ZINC000484424341    0.1000
     49 H49       -10.2303   -0.9966   55.1746 H       1  ZINC000484424341    0.0900
     50 H50       -11.9283   -0.4457   55.3097 H       1  ZINC000484424341    0.0900
     51 H51        -6.9178    0.7056   50.7791 H       1  ZINC000484424341    0.1300
@<TRIPOS>BOND
     1     1     2    1
     2     1    29    1
     3     1    30    1
     4     1    31    1
     5     2     3    1
     6     3     4    1
     7     3     5    1
     8     3     6    1
     9     5    32    1
    10     5    33    1
    11     5    34    1
    12     6    28   ar
    13     6     7   ar
    14     7     8   ar
    15     7    35    1
    16     8     9   ar
    17     8    36    1
    18     9    10   ar
    19     9    37    1
    20    10    11    1
    21    10    28   ar
    22    11    12   am
    23    11    38    1
    24    12    13    2
    25    12    14    1
    26    14    15    2
    27    14    16   am
    28    16    27    1
    29    16    17    1
    30    17    18    1
    31    17    39    1
    32    17    40    1
    33    18    19    1
    34    18    41    1
    35    18    42    1
    36    19    20    1
    37    19    21    1
    38    19    27    1
    39    21    25   am
    40    21    22    1
    41    22    23    1
    42    22    43    1
    43    22    44    1
    44    23    24    1
    45    23    45    1
    46    23    46    1
    47    24    25    1
    48    24    47    1
    49    24    48    1
    50    25    26    2
    51    27    49    1
    52    27    50    1
    53    28    51    1
@<TRIPOS>SUBSTRUCTURE
     1 ZINC000484424341        1 TEMP              0 ****  ****    0 ROOT


##########                                Name:    ZINC000517001504
##########                DOCK_Rotatable_Bonds:                   5
##########                         Heavy_Atoms:                  29
##########                    Molecular_Weight:             403.401
##########                DOCK_Rotatable_Bonds:                   5
##########                       Formal_Charge:          -0.0200002
##########                     HBond_Acceptors:                   7
##########                        HBond_Donors:                   0
##########                         Heavy_Atoms:                  29
##########                          Grid_Score:          -28.256983
##########                     Grid_vdw_energy:          -27.533758
##########                      Grid_es_energy:           -0.723224
##########           Internal_energy_repulsive:           35.004890

@<TRIPOS>MOLECULE
ZINC000517001504
 49 52 1 0 0
SMALL
USER_CHARGES


@<TRIPOS>ATOM
      1 O1         -9.6093   -1.6013   52.2290 O.2     1  ZINC000517001504   -0.5200
      2 C2        -10.1245   -0.7937   52.9728 C.2     1  ZINC000517001504    0.5400
      3 N3         -9.4610    0.3294   53.3118 N.am    1  ZINC000517001504   -0.6100
      4 C4        -10.0680    1.3265   54.2077 C.3     1  ZINC000517001504    0.0600
      5 C5         -9.9483    2.7052   53.5484 C.3     1  ZINC000517001504    0.0500
      6 O6         -8.5870    2.9321   53.1755 O.3     1  ZINC000517001504   -0.3700
      7 C7         -8.0839    2.0088   52.2068 C.3     1  ZINC000517001504    0.1200
      8 H8         -8.7086    2.0413   51.3141 H       1  ZINC000517001504    0.0800
      9 C9         -6.6689    2.3802   51.8449 C.ar    1  ZINC000517001504   -0.0600
     10 C10        -6.1086    1.9079   50.6728 C.ar    1  ZINC000517001504   -0.0900
     11 C11        -4.8107    2.2485   50.3409 C.ar    1  ZINC000517001504   -0.0700
     12 C12        -4.0732    3.0619   51.1808 C.ar    1  ZINC000517001504   -0.1800
     13 C13        -2.6580    3.4329   50.8192 C.3     1  ZINC000517001504    0.5100
     14 F14        -1.8023    3.0878   51.8709 F       1  ZINC000517001504   -0.1800
     15 F15        -2.2765    2.7447   49.6626 F       1  ZINC000517001504   -0.1800
     16 F16        -2.5815    4.8107   50.5888 F       1  ZINC000517001504   -0.1800
     17 C17        -4.6340    3.5353   52.3523 C.ar    1  ZINC000517001504   -0.0700
     18 C18        -5.9333    3.1977   52.6823 C.ar    1  ZINC000517001504   -0.1000
     19 C19        -8.1059    0.5917   52.8019 C.3     1  ZINC000517001504    0.0900
     20 C20       -11.5091   -1.0431   53.5129 C.3     1  ZINC000517001504   -0.0600
     21 C21       -12.5499   -0.1459   52.8942 C.ar    1  ZINC000517001504   -0.0700
     22 C22       -13.2194    0.7771   53.6756 C.ar    1  ZINC000517001504   -0.1200
     23 C23       -14.1741    1.6001   53.1080 C.ar    1  ZINC000517001504   -0.1100
     24 C24       -14.4590    1.5004   51.7590 C.ar    1  ZINC000517001504   -0.1100
     25 C25       -13.7887    0.5780   50.9775 C.ar    1  ZINC000517001504   -0.1100
     26 C26       -12.8310   -0.2420   51.5441 C.ar    1  ZINC000517001504   -0.1000
     27 C27       -11.9055   -2.5294   53.5331 C.3     1  ZINC000517001504   -0.1600
     28 C28       -11.3074   -2.5813   54.9250 C.2     1  ZINC000517001504    0.3600
     29 O29       -10.8274   -3.4367   55.6293 O.2     1  ZINC000517001504   -0.4100
     30 C30       -11.5725   -1.0940   55.0492 C.3     1  ZINC000517001504   -0.1900
     31 H31       -11.1191    1.0856   54.3667 H       1  ZINC000517001504    0.1000
     32 H32        -9.5430    1.3296   55.1630 H       1  ZINC000517001504    0.0800
     33 H33       -10.5797    2.7403   52.6606 H       1  ZINC000517001504    0.0600
     34 H34       -10.2660    3.4743   54.2525 H       1  ZINC000517001504    0.1100
     35 H35        -6.6848    1.2725   50.0166 H       1  ZINC000517001504    0.1400
     36 H36        -4.3726    1.8789   49.4255 H       1  ZINC000517001504    0.1400
     37 H37        -4.0579    4.1710   53.0083 H       1  ZINC000517001504    0.1400
     38 H38        -6.3713    3.5677   53.5976 H       1  ZINC000517001504    0.1400
     39 H39        -7.3825    0.5235   53.6143 H       1  ZINC000517001504    0.0800
     40 H40        -7.8593   -0.1352   52.0281 H       1  ZINC000517001504    0.1100
     41 H41       -12.9970    0.8550   54.7295 H       1  ZINC000517001504    0.1300
     42 H42       -14.6979    2.3208   53.7186 H       1  ZINC000517001504    0.1300
     43 H43       -15.2053    2.1429   51.3157 H       1  ZINC000517001504    0.1300
     44 H44       -14.0113    0.4998   49.9235 H       1  ZINC000517001504    0.1300
     45 H45       -12.3073   -0.9627   50.9335 H       1  ZINC000517001504    0.1200
     46 H46       -12.9826   -2.6953   53.5132 H       1  ZINC000517001504    0.1300
     47 H47       -11.3686   -3.1353   52.8032 H       1  ZINC000517001504    0.1100
     48 H48       -10.7677   -0.5456   55.5388 H       1  ZINC000517001504    0.1000
     49 H49       -12.5561   -0.8573   55.4547 H       1  ZINC000517001504    0.1400
@<TRIPOS>BOND
     1     1     2    2
     2     2     3   am
     3     2    20    1
     4     3    19    1
     5     3     4    1
     6     4     5    1
     7     4    31    1
     8     4    32    1
     9     5     6    1
    10     5    33    1
    11     5    34    1
    12     6     7    1
    13     7     8    1
    14     7     9    1
    15     7    19    1
    16     9    18   ar
    17     9    10   ar
    18    10    11   ar
    19    10    35    1
    20    11    12   ar
    21    11    36    1
    22    12    13    1
    23    12    17   ar
    24    13    14    1
    25    13    15    1
    26    13    16    1
    27    17    18   ar
    28    17    37    1
    29    18    38    1
    30    19    39    1
    31    19    40    1
    32    20    30    1
    33    20    21    1
    34    20    27    1
    35    21    26   ar
    36    21    22   ar
    37    22    23   ar
    38    22    41    1
    39    23    24   ar
    40    23    42    1
    41    24    25   ar
    42    24    43    1
    43    25    26   ar
    44    25    44    1
    45    26    45    1
    46    27    28    1
    47    27    46    1
    48    27    47    1
    49    28    29    2
    50    28    30    1
    51    30    48    1
    52    30    49    1
@<TRIPOS>SUBSTRUCTURE
     1 ZINC000517001504        1 TEMP              0 ****  ****    0 ROOT


##########                                Name:    ZINC001015955459
##########                DOCK_Rotatable_Bonds:                   6
##########                         Heavy_Atoms:                  24
##########                    Molecular_Weight:             347.844
##########                DOCK_Rotatable_Bonds:                   6
##########                       Formal_Charge:          -0.0200002
##########                     HBond_Acceptors:                   6
##########                        HBond_Donors:                   1
##########                         Heavy_Atoms:                  24
##########                          Grid_Score:          -28.252640
##########                     Grid_vdw_energy:          -29.015970
##########                      Grid_es_energy:            0.763330
##########           Internal_energy_repulsive:           11.936807

@<TRIPOS>MOLECULE
ZINC001015955459
 46 48 1 0 0
SMALL
USER_CHARGES


@<TRIPOS>ATOM
      1 C1          0.2809    0.0129   61.3334 C.3     1  ZINC001015955459   -0.1500
      2 C2         -0.5318    1.0625   60.5725 C.3     1  ZINC001015955459   -0.0300
      3 C3         -1.0134    2.1393   61.5468 C.3     1  ZINC001015955459   -0.1500
      4 C4          0.3321    1.6948   59.5119 C.2     1  ZINC001015955459    0.0600
      5 C5         -0.0882    2.2016   58.3208 C.2     1  ZINC001015955459   -0.0800
      6 C6         -1.4757    2.2351   57.8240 C.2     1  ZINC001015955459    0.6100
      7 O7         -2.3766    1.7839   58.5050 O.2     1  ZINC001015955459   -0.5300
      8 N8         -1.7460    2.7660   56.6150 N.am    1  ZINC001015955459   -0.7100
      9 C9         -3.1250    2.8010   56.1220 C.3     1  ZINC001015955459    0.1400
     10 H10        -3.5741    1.8097   56.1848 H       1  ZINC001015955459    0.1000
     11 C11        -3.9572    3.8182   56.9297 C.3     1  ZINC001015955459   -0.1300
     12 C12        -4.4286    4.8624   55.8951 C.3     1  ZINC001015955459    0.0200
     13 N13        -4.3960    4.1430   54.5957 N.3     1  ZINC001015955459   -0.4900
     14 C14        -4.3315    5.0876   53.4725 C.3     1  ZINC001015955459    0.0800
     15 C15        -4.3932    4.3274   52.1727 C.ar    1  ZINC001015955459   -0.1100
     16 C16        -3.2309    4.0527   51.4770 C.ar    1  ZINC001015955459   -0.1100
     17 C17        -3.2863    3.3511   50.2869 C.ar    1  ZINC001015955459   -0.1000
     18 C18        -4.5050    2.9333   49.7870 C.ar    1  ZINC001015955459   -0.1100
     19 C19        -5.6694    3.2126   50.4802 C.ar    1  ZINC001015955459   -0.0300
     20 Cl20       -7.2008    2.6887   49.8525 Cl      1  ZINC001015955459   -0.0700
     21 C21        -5.6128    3.9100   51.6736 C.ar    1  ZINC001015955459   -0.1000
     22 C22        -3.1614    3.3150   54.6667 C.3     1  ZINC001015955459    0.0100
     23 N23         1.0141    2.6661   57.6723 N.2     1  ZINC001015955459   -0.4600
     24 C24         2.0519    2.4645   58.4278 C.2     1  ZINC001015955459    0.1800
     25 O25         1.6628    1.8659   59.5624 O.3     1  ZINC001015955459   -0.1900
     26 H26         1.1415    0.4897   61.8024 H       1  ZINC001015955459    0.0600
     27 H27        -0.3440   -0.4445   62.1005 H       1  ZINC001015955459    0.0700
     28 H28         0.6239   -0.7543   60.6392 H       1  ZINC001015955459    0.0600
     29 H29        -1.3925    0.5857   60.1034 H       1  ZINC001015955459    0.1300
     30 H30        -1.5924    2.8870   61.0048 H       1  ZINC001015955459    0.0600
     31 H31        -1.6383    1.6819   62.3140 H       1  ZINC001015955459    0.0700
     32 H32        -0.1528    2.6161   62.0159 H       1  ZINC001015955459    0.0600
     33 H33        -1.0272    3.1249   56.0713 H       1  ZINC001015955459    0.4100
     34 H34        -4.8145    3.3263   57.3890 H       1  ZINC001015955459    0.0800
     35 H35        -3.3394    4.2915   57.6930 H       1  ZINC001015955459    0.0700
     36 H36        -5.4428    5.1914   56.1221 H       1  ZINC001015955459    0.0900
     37 H37        -3.7475    5.7131   55.8759 H       1  ZINC001015955459    0.0500
     38 H38        -5.1728    5.7783   53.5298 H       1  ZINC001015955459    0.0900
     39 H39        -3.3976    5.6476   53.5219 H       1  ZINC001015955459    0.0900
     40 H40        -2.2787    4.3829   51.8651 H       1  ZINC001015955459    0.1300
     41 H41        -2.3774    3.1332   49.7459 H       1  ZINC001015955459    0.1300
     42 H42        -4.5485    2.3892   48.8550 H       1  ZINC001015955459    0.1300
     43 H43        -6.5215    4.1287   52.2150 H       1  ZINC001015955459    0.1300
     44 H44        -2.2819    3.9236   54.4564 H       1  ZINC001015955459    0.0700
     45 H45        -3.2219    2.4791   53.9698 H       1  ZINC001015955459    0.0900
     46 H46         3.0681    2.7323   58.1789 H       1  ZINC001015955459    0.2600
@<TRIPOS>BOND
     1     1     2    1
     2     1    26    1
     3     1    27    1
     4     1    28    1
     5     2     3    1
     6     2     4    1
     7     2    29    1
     8     3    30    1
     9     3    31    1
    10     3    32    1
    11     4    25    1
    12     4     5    2
    13     5     6    1
    14     5    23    1
    15     6     7    2
    16     6     8   am
    17     8     9    1
    18     8    33    1
    19     9    10    1
    20     9    22    1
    21     9    11    1
    22    11    12    1
    23    11    34    1
    24    11    35    1
    25    12    13    1
    26    12    36    1
    27    12    37    1
    28    13    14    1
    29    13    22    1
    30    14    15    1
    31    14    38    1
    32    14    39    1
    33    15    21   ar
    34    15    16   ar
    35    16    17   ar
    36    16    40    1
    37    17    18   ar
    38    17    41    1
    39    18    19   ar
    40    18    42    1
    41    19    20    1
    42    19    21   ar
    43    21    43    1
    44    22    44    1
    45    22    45    1
    46    23    24    2
    47    24    25    1
    48    24    46    1
@<TRIPOS>SUBSTRUCTURE
     1 ZINC001015955459        1 TEMP              0 ****  ****    0 ROOT


##########                                Name:    ZINC001291841503
##########                DOCK_Rotatable_Bonds:                   7
##########                         Heavy_Atoms:                  28
##########                    Molecular_Weight:             397.544
##########                DOCK_Rotatable_Bonds:                   7
##########                       Formal_Charge:         -0.00999964
##########                     HBond_Acceptors:                   7
##########                        HBond_Donors:                   0
##########                         Heavy_Atoms:                  28
##########                          Grid_Score:          -28.239689
##########                     Grid_vdw_energy:          -28.399055
##########                      Grid_es_energy:            0.159367
##########           Internal_energy_repulsive:           17.328161

@<TRIPOS>MOLECULE
ZINC001291841503
 55 58 1 0 0
SMALL
USER_CHARGES


@<TRIPOS>ATOM
      1 C1         -9.6762   -0.3648   61.5765 C.3     1  ZINC001291841503   -0.1500
      2 C2        -11.0593   -0.6163   60.9722 C.3     1  ZINC001291841503   -0.1100
      3 C3        -10.9144   -0.9398   59.4839 C.3     1  ZINC001291841503    0.0500
      4 H4        -10.2276   -1.7771   59.3592 H       1  ZINC001291841503    0.0900
      5 C5        -12.2614   -1.3064   58.9161 C.2     1  ZINC001291841503    0.2000
      6 N6        -13.4183   -0.8760   59.3335 N.2     1  ZINC001291841503   -0.2700
      7 N7        -14.3606   -1.3884   58.6253 N.2     1  ZINC001291841503   -0.3100
      8 C8        -13.8513   -2.1794   57.7107 C.2     1  ZINC001291841503    0.3600
      9 N9        -14.5566   -2.9056   56.7641 N.3     1  ZINC001291841503   -0.4500
     10 C10       -15.1216   -4.1276   57.3520 C.3     1  ZINC001291841503    0.0200
     11 C11       -15.6061   -2.0849   56.1456 C.3     1  ZINC001291841503    0.0700
     12 H12       -16.2708   -1.6718   56.9044 H       1  ZINC001291841503    0.0800
     13 C13       -14.9857   -0.9546   55.2799 C.3     1  ZINC001291841503   -0.1400
     14 C14       -16.1069   -0.7369   54.2329 C.3     1  ZINC001291841503    0.0500
     15 O15       -16.6416   -2.0456   53.9781 O.3     1  ZINC001291841503   -0.3800
     16 C16       -16.4012   -2.9025   55.1050 C.3     1  ZINC001291841503    0.0600
     17 N17       -12.4958   -2.1473   57.8637 N.pl3   1  ZINC001291841503   -0.4700
     18 C18       -11.4988   -2.8714   57.0712 C.3     1  ZINC001291841503    0.1900
     19 C19       -11.3127   -2.1802   55.7450 C.2     1  ZINC001291841503   -0.2700
     20 C20       -11.2571   -0.8596   55.5477 C.2     1  ZINC001291841503    0.0800
     21 N21       -11.0877   -0.5015   54.2908 N.2     1  ZINC001291841503   -0.4800
     22 C22       -10.9973   -1.4465   53.4170 C.2     1  ZINC001291841503    0.0500
     23 C23       -10.8027   -1.2373   51.9373 C.3     1  ZINC001291841503   -0.0800
     24 S24       -11.1227   -2.9705   54.1818 S.3     1  ZINC001291841503    0.1800
     25 C25       -10.3743    0.2652   58.7580 C.ar    1  ZINC001291841503   -0.0900
     26 C26        -9.0630    0.2785   58.3207 C.ar    1  ZINC001291841503   -0.0900
     27 C27        -8.5675    1.3839   57.6549 C.ar    1  ZINC001291841503   -0.1200
     28 C28        -9.3835    2.4759   57.4258 C.ar    1  ZINC001291841503   -0.1200
     29 C29       -10.6950    2.4624   57.8623 C.ar    1  ZINC001291841503   -0.1200
     30 C30       -11.1918    1.3552   58.5244 C.ar    1  ZINC001291841503   -0.1100
     31 H31        -9.0600   -1.2558   61.4566 H       1  ZINC001291841503    0.0500
     32 H32        -9.2041    0.4748   61.0664 H       1  ZINC001291841503    0.0500
     33 H33        -9.7794   -0.1343   62.6368 H       1  ZINC001291841503    0.0600
     34 H34       -11.5314   -1.4559   61.4822 H       1  ZINC001291841503    0.0800
     35 H35       -11.6755    0.2747   61.0921 H       1  ZINC001291841503    0.0800
     36 H36       -15.8682   -3.8595   58.0997 H       1  ZINC001291841503    0.0500
     37 H37       -15.5896   -4.7245   56.5692 H       1  ZINC001291841503    0.0900
     38 H38       -14.3266   -4.7054   57.8233 H       1  ZINC001291841503    0.0700
     39 H39       -14.8193   -0.0537   55.8704 H       1  ZINC001291841503    0.0900
     40 H40       -14.0628   -1.2861   54.8039 H       1  ZINC001291841503    0.0800
     41 H41       -16.8807   -0.0843   54.6374 H       1  ZINC001291841503    0.0700
     42 H42       -15.6933   -0.3125   53.3181 H       1  ZINC001291841503    0.0900
     43 H43       -15.8162   -3.7679   54.7934 H       1  ZINC001291841503    0.0800
     44 H44       -17.3501   -3.2297   55.5299 H       1  ZINC001291841503    0.0700
     45 H45       -10.5504   -2.8884   57.6082 H       1  ZINC001291841503    0.1100
     46 H46       -11.8400   -3.8929   56.9037 H       1  ZINC001291841503    0.1100
     47 H47       -11.3438   -0.1444   56.3524 H       1  ZINC001291841503    0.1700
     48 H48        -9.7367   -1.2099   51.7114 H       1  ZINC001291841503    0.0900
     49 H49       -11.2692   -2.0565   51.3901 H       1  ZINC001291841503    0.0800
     50 H50       -11.2615   -0.2942   51.6402 H       1  ZINC001291841503    0.0900
     51 H51        -8.4255   -0.5748   58.4996 H       1  ZINC001291841503    0.1300
     52 H52        -7.5428    1.3944   57.3138 H       1  ZINC001291841503    0.1200
     53 H53        -8.9962    3.3399   56.9062 H       1  ZINC001291841503    0.1200
     54 H54       -11.3324    3.3158   57.6836 H       1  ZINC001291841503    0.1200
     55 H55       -12.2165    1.3446   58.8654 H       1  ZINC001291841503    0.1200
@<TRIPOS>BOND
     1     1     2    1
     2     1    31    1
     3     1    32    1
     4     1    33    1
     5     2     3    1
     6     2    34    1
     7     2    35    1
     8     3     4    1
     9     3     5    1
    10     3    25    1
    11     5    17    1
    12     5     6    2
    13     6     7    1
    14     7     8    2
    15     8     9    1
    16     8    17    1
    17     9    10    1
    18     9    11    1
    19    10    36    1
    20    10    37    1
    21    10    38    1
    22    11    12    1
    23    11    16    1
    24    11    13    1
    25    13    14    1
    26    13    39    1
    27    13    40    1
    28    14    15    1
    29    14    41    1
    30    14    42    1
    31    15    16    1
    32    16    43    1
    33    16    44    1
    34    17    18    1
    35    18    19    1
    36    18    45    1
    37    18    46    1
    38    19    24    1
    39    19    20    2
    40    20    21    1
    41    20    47    1
    42    21    22    2
    43    22    23    1
    44    22    24    1
    45    23    48    1
    46    23    49    1
    47    23    50    1
    48    25    30   ar
    49    25    26   ar
    50    26    27   ar
    51    26    51    1
    52    27    28   ar
    53    27    52    1
    54    28    29   ar
    55    28    53    1
    56    29    30   ar
    57    29    54    1
    58    30    55    1
@<TRIPOS>SUBSTRUCTURE
     1 ZINC001291841503        1 TEMP              0 ****  ****    0 ROOT


##########                                Name:    ZINC001625935330
##########                DOCK_Rotatable_Bonds:                   5
##########                         Heavy_Atoms:                  25
##########                    Molecular_Weight:             327.385
##########                DOCK_Rotatable_Bonds:                   5
##########                       Formal_Charge:           0.0199995
##########                     HBond_Acceptors:                   4
##########                        HBond_Donors:                   1
##########                         Heavy_Atoms:                  25
##########                          Grid_Score:          -28.230297
##########                     Grid_vdw_energy:          -28.207285
##########                      Grid_es_energy:           -0.023013
##########           Internal_energy_repulsive:           17.249184

@<TRIPOS>MOLECULE
ZINC001625935330
 42 44 1 0 0
SMALL
USER_CHARGES


@<TRIPOS>ATOM
      1 C1        -12.3662   -0.8052   52.5753 C.3     1  ZINC001625935330   -0.1600
      2 C2        -11.2758   -1.4030   53.4668 C.3     1  ZINC001625935330    0.1800
      3 H3        -10.7880   -2.2248   52.9426 H       1  ZINC001625935330    0.1000
      4 N4        -10.2859   -0.3712   53.7858 N.am    1  ZINC001625935330   -0.7100
      5 C5         -9.3140   -0.0732   52.9009 C.2     1  ZINC001625935330    0.5800
      6 O6         -9.2578   -0.6613   51.8391 O.2     1  ZINC001625935330   -0.5300
      7 C7         -8.3138    0.9716   53.2228 C.ar    1  ZINC001625935330    0.0800
      8 C8         -7.3353    1.2985   52.2904 C.ar    1  ZINC001625935330   -0.1000
      9 C9         -6.4001    2.2867   52.6102 C.ar    1  ZINC001625935330    0.0000
     10 C10        -5.3380    2.6697   51.6476 C.ar    1  ZINC001625935330   -0.0600
     11 C11        -4.4653    3.7137   51.9480 C.ar    1  ZINC001625935330   -0.1000
     12 C12        -3.4788    4.0655   51.0491 C.ar    1  ZINC001625935330   -0.1200
     13 C13        -3.3555    3.3837   49.8519 C.ar    1  ZINC001625935330   -0.1100
     14 C14        -4.2191    2.3465   49.5484 C.ar    1  ZINC001625935330   -0.1200
     15 C15        -5.2058    1.9829   50.4422 C.ar    1  ZINC001625935330   -0.1000
     16 C16        -6.4919    2.9045   53.8597 C.ar    1  ZINC001625935330   -0.1400
     17 C17        -7.4963    2.5208   54.7306 C.ar    1  ZINC001625935330    0.1100
     18 N18        -8.3643    1.5904   54.3969 N.ar    1  ZINC001625935330   -0.4600
     19 C19       -11.8945   -1.9166   54.7413 C.ar    1  ZINC001625935330   -0.0900
     20 C20       -11.8220   -1.1603   55.8973 C.ar    1  ZINC001625935330   -0.0800
     21 C21       -12.3875   -1.6245   57.0720 C.ar    1  ZINC001625935330   -0.1100
     22 C22       -13.0281   -2.8456   57.0973 C.ar    1  ZINC001625935330   -0.0700
     23 C23       -13.1054   -3.6141   55.9338 C.ar    1  ZINC001625935330   -0.0200
     24 C24       -13.7691   -4.8829   55.9526 C.1     1  ZINC001625935330    0.2500
     25 N25       -14.2956   -5.8895   55.9675 N.1     1  ZINC001625935330   -0.4100
     26 C26       -12.5369   -3.1376   54.7509 C.ar    1  ZINC001625935330   -0.0600
     27 H27       -13.1027   -1.5729   52.3378 H       1  ZINC001625935330    0.0700
     28 H28       -12.8539    0.0166   53.0993 H       1  ZINC001625935330    0.0600
     29 H29       -11.9186   -0.4337   51.6535 H       1  ZINC001625935330    0.0700
     30 H30       -10.3299    0.0975   54.6339 H       1  ZINC001625935330    0.4100
     31 H31        -7.2984    0.7967   51.3348 H       1  ZINC001625935330    0.1500
     32 H32        -4.5610    4.2469   52.8823 H       1  ZINC001625935330    0.1300
     33 H33        -2.8022    4.8747   51.2807 H       1  ZINC001625935330    0.1300
     34 H34        -2.5824    3.6625   49.1511 H       1  ZINC001625935330    0.1300
     35 H35        -4.1185    1.8178   48.6121 H       1  ZINC001625935330    0.1300
     36 H36        -5.8793    1.1727   50.2046 H       1  ZINC001625935330    0.1300
     37 H37        -5.7870    3.6722   54.1427 H       1  ZINC001625935330    0.1400
     38 H38        -7.5711    2.9954   55.6979 H       1  ZINC001625935330    0.1700
     39 H39       -11.3215   -0.2034   55.8831 H       1  ZINC001625935330    0.1300
     40 H40       -12.3266   -1.0293   57.9711 H       1  ZINC001625935330    0.1400
     41 H41       -13.4687   -3.2069   58.0148 H       1  ZINC001625935330    0.1400
     42 H42       -12.5932   -3.7269   53.8477 H       1  ZINC001625935330    0.1400
@<TRIPOS>BOND
     1     1     2    1
     2     1    27    1
     3     1    28    1
     4     1    29    1
     5     2     3    1
     6     2     4    1
     7     2    19    1
     8     4     5   am
     9     4    30    1
    10     5     6    2
    11     5     7    1
    12     7    18   ar
    13     7     8   ar
    14     8     9   ar
    15     8    31    1
    16     9    10    1
    17     9    16   ar
    18    10    15   ar
    19    10    11   ar
    20    11    12   ar
    21    11    32    1
    22    12    13   ar
    23    12    33    1
    24    13    14   ar
    25    13    34    1
    26    14    15   ar
    27    14    35    1
    28    15    36    1
    29    16    17   ar
    30    16    37    1
    31    17    18   ar
    32    17    38    1
    33    19    26   ar
    34    19    20   ar
    35    20    21   ar
    36    20    39    1
    37    21    22   ar
    38    21    40    1
    39    22    23   ar
    40    22    41    1
    41    23    24    1
    42    23    26   ar
    43    24    25    3
    44    26    42    1
@<TRIPOS>SUBSTRUCTURE
     1 ZINC001625935330        1 TEMP              0 ****  ****    0 ROOT


##########                                Name:    ZINC000643274279
##########                DOCK_Rotatable_Bonds:                   6
##########                         Heavy_Atoms:                  29
##########                    Molecular_Weight:             392.454
##########                DOCK_Rotatable_Bonds:                   6
##########                       Formal_Charge:         -0.00999939
##########                     HBond_Acceptors:                   6
##########                        HBond_Donors:                   2
##########                         Heavy_Atoms:                  29
##########                          Grid_Score:          -28.224604
##########                     Grid_vdw_energy:          -27.064199
##########                      Grid_es_energy:           -1.160403
##########           Internal_energy_repulsive:            9.499982

@<TRIPOS>MOLECULE
ZINC000643274279
 53 56 1 0 0
SMALL
USER_CHARGES


@<TRIPOS>ATOM
      1 O1        -11.8354   -2.3619   52.3814 O.2     1  ZINC000643274279   -0.4900
      2 C2        -12.1328   -1.8441   53.4381 C.2     1  ZINC000643274279    0.5100
      3 N3        -12.7473   -0.6447   53.4517 N.am    1  ZINC000643274279   -0.6400
      4 C4        -13.0367    0.0057   52.2489 C.ar    1  ZINC000643274279    0.1300
      5 C5        -13.8814   -0.5943   51.3217 C.ar    1  ZINC000643274279   -0.1000
      6 C6        -14.1646    0.0369   50.1227 C.ar    1  ZINC000643274279   -0.1000
      7 C7        -13.6056    1.2648   49.8452 C.ar    1  ZINC000643274279   -0.0600
      8 C8        -13.8573    1.9282   48.5025 C.3     1  ZINC000643274279   -0.0900
      9 C9        -14.7016    3.1802   48.7110 C.3     1  ZINC000643274279   -0.1200
     10 C10       -13.8343    4.3940   49.0087 C.3     1  ZINC000643274279   -0.1100
     11 C11       -13.1972    4.3768   50.3752 C.3     1  ZINC000643274279   -0.1600
     12 C12       -12.2219    3.2206   50.4812 C.2     1  ZINC000643274279    0.4100
     13 O13       -11.0305    3.3867   50.3286 O.2     1  ZINC000643274279   -0.4400
     14 C14       -12.7759    1.8878   50.7772 C.ar    1  ZINC000643274279   -0.1300
     15 C15       -12.4853    1.2511   51.9853 C.ar    1  ZINC000643274279   -0.1000
     16 C16       -11.8234   -2.5393   54.7234 C.2     1  ZINC000643274279    0.5200
     17 O17       -10.6841   -2.8751   54.9727 O.2     1  ZINC000643274279   -0.5000
     18 N18       -12.8094   -2.7935   55.6063 N.am    1  ZINC000643274279   -0.5800
     19 C19       -14.2305   -2.4423   55.4321 C.3     1  ZINC000643274279    0.0900
     20 C20       -14.9990   -3.4402   56.3339 C.3     1  ZINC000643274279   -0.1400
     21 C21       -14.0436   -3.5603   57.5504 C.3     1  ZINC000643274279   -0.1200
     22 C22       -12.6468   -3.4727   56.9001 C.3     1  ZINC000643274279    0.1800
     23 H23       -12.2441   -4.4745   56.7505 H       1  ZINC000643274279    0.0900
     24 C24       -11.7205   -2.6745   57.7810 C.ar    1  ZINC000643274279   -0.1000
     25 C25       -12.0342   -1.3683   58.1079 C.ar    1  ZINC000643274279   -0.0900
     26 C26       -11.1867   -0.6344   58.9152 C.ar    1  ZINC000643274279   -0.1400
     27 C27       -10.0203   -1.2095   59.3984 C.ar    1  ZINC000643274279    0.1100
     28 O28        -9.1853   -0.4898   60.1931 O.3     1  ZINC000643274279   -0.5000
     29 C29        -9.7081   -2.5205   59.0693 C.ar    1  ZINC000643274279   -0.1400
     30 C30       -10.5612   -3.2516   58.2656 C.ar    1  ZINC000643274279   -0.0900
     31 H31       -12.9885   -0.2328   54.2960 H       1  ZINC000643274279    0.4200
     32 H32       -14.3186   -1.5580   51.5378 H       1  ZINC000643274279    0.1400
     33 H33       -14.8221   -0.4327   49.4061 H       1  ZINC000643274279    0.1400
     34 H34       -12.9055    2.2027   48.0480 H       1  ZINC000643274279    0.0800
     35 H35       -14.3878    1.2362   47.8483 H       1  ZINC000643274279    0.0800
     36 H36       -15.2844    3.3711   47.8098 H       1  ZINC000643274279    0.0800
     37 H37       -15.3828    3.0156   49.5459 H       1  ZINC000643274279    0.0700
     38 H38       -13.0450    4.4485   48.2589 H       1  ZINC000643274279    0.0700
     39 H39       -14.4503    5.2894   48.9245 H       1  ZINC000643274279    0.0800
     40 H40       -12.6654    5.3143   50.5379 H       1  ZINC000643274279    0.0900
     41 H41       -13.9721    4.2668   51.1339 H       1  ZINC000643274279    0.0900
     42 H42       -11.8340    1.7223   52.7065 H       1  ZINC000643274279    0.1300
     43 H43       -14.4112   -1.4184   55.7593 H       1  ZINC000643274279    0.0800
     44 H44       -14.5270   -2.5664   54.3905 H       1  ZINC000643274279    0.1000
     45 H45       -15.9642   -3.0322   56.6340 H       1  ZINC000643274279    0.0900
     46 H46       -15.1210   -4.4023   55.8364 H       1  ZINC000643274279    0.0800
     47 H47       -14.2009   -2.7369   58.2471 H       1  ZINC000643274279    0.0800
     48 H48       -14.1742   -4.5201   58.0502 H       1  ZINC000643274279    0.0900
     49 H49       -12.9423   -0.9210   57.7315 H       1  ZINC000643274279    0.1200
     50 H50       -11.4318    0.3862   59.1697 H       1  ZINC000643274279    0.1300
     51 H51        -8.4009   -0.9761   60.4819 H       1  ZINC000643274279    0.3900
     52 H52        -8.8004   -2.9702   59.4439 H       1  ZINC000643274279    0.1300
     53 H53       -10.3188   -4.2723   58.0094 H       1  ZINC000643274279    0.1300
@<TRIPOS>BOND
     1     1     2    2
     2     2     3   am
     3     2    16    1
     4     3     4    1
     5     3    31    1
     6     4    15   ar
     7     4     5   ar
     8     5     6   ar
     9     5    32    1
    10     6     7   ar
    11     6    33    1
    12     7    14   ar
    13     7     8    1
    14     8     9    1
    15     8    34    1
    16     8    35    1
    17     9    10    1
    18     9    36    1
    19     9    37    1
    20    10    11    1
    21    10    38    1
    22    10    39    1
    23    11    12    1
    24    11    40    1
    25    11    41    1
    26    12    13    2
    27    12    14    1
    28    14    15   ar
    29    15    42    1
    30    16    17    2
    31    16    18   am
    32    18    22    1
    33    18    19    1
    34    19    20    1
    35    19    43    1
    36    19    44    1
    37    20    21    1
    38    20    45    1
    39    20    46    1
    40    21    22    1
    41    21    47    1
    42    21    48    1
    43    22    23    1
    44    22    24    1
    45    24    30   ar
    46    24    25   ar
    47    25    26   ar
    48    25    49    1
    49    26    27   ar
    50    26    50    1
    51    27    28    1
    52    27    29   ar
    53    28    51    1
    54    29    30   ar
    55    29    52    1
    56    30    53    1
@<TRIPOS>SUBSTRUCTURE
     1 ZINC000643274279        1 TEMP              0 ****  ****    0 ROOT


##########                                Name:    ZINC000966038509
##########                DOCK_Rotatable_Bonds:                   5
##########                         Heavy_Atoms:                  25
##########                    Molecular_Weight:             346.445
##########                DOCK_Rotatable_Bonds:                   5
##########                       Formal_Charge:           0.0299998
##########                     HBond_Acceptors:                   5
##########                        HBond_Donors:                   1
##########                         Heavy_Atoms:                  25
##########                          Grid_Score:          -28.213833
##########                     Grid_vdw_energy:          -27.612907
##########                      Grid_es_energy:           -0.600925
##########           Internal_energy_repulsive:           17.487873

@<TRIPOS>MOLECULE
ZINC000966038509
 52 54 1 0 0
SMALL
USER_CHARGES


@<TRIPOS>ATOM
      1 C1        -12.3203   -2.1931   57.2828 C.3     1  ZINC000966038509   -0.1200
      2 C2        -11.3384   -1.3292   58.0314 C.ar    1  ZINC000966038509   -0.0100
      3 C3        -10.8786   -1.7210   59.2703 C.ar    1  ZINC000966038509   -0.1600
      4 C4         -9.9756   -0.9267   59.9604 C.ar    1  ZINC000966038509    0.1300
      5 F5         -9.5284   -1.3152   61.1747 F       1  ZINC000966038509   -0.1300
      6 C6         -9.5294    0.2645   59.4087 C.ar    1  ZINC000966038509   -0.1600
      7 C7         -9.9828    0.6657   58.1704 C.ar    1  ZINC000966038509   -0.0100
      8 C8         -9.4973    1.9610   57.5721 C.3     1  ZINC000966038509   -0.1200
      9 C9        -10.8883   -0.1329   57.4686 C.ar    1  ZINC000966038509   -0.1500
     10 C10       -11.3776    0.2920   56.1412 C.2     1  ZINC000966038509    0.5700
     11 O11       -12.4028    0.9389   56.0497 O.2     1  ZINC000966038509   -0.5200
     12 N12       -10.6874   -0.0375   55.0313 N.am    1  ZINC000966038509   -0.7100
     13 C13       -11.1718    0.3854   53.7151 C.3     1  ZINC000966038509    0.1300
     14 H14       -12.1163    0.9224   53.8026 H       1  ZINC000966038509    0.1200
     15 C15       -10.1107    1.2441   52.9825 C.3     1  ZINC000966038509    0.0900
     16 N16        -9.1704    0.2679   52.4024 N.am    1  ZINC000966038509   -0.6200
     17 C17        -7.8838    0.5109   52.0829 C.2     1  ZINC000966038509    0.5400
     18 O18        -7.1994   -0.3715   51.6097 O.2     1  ZINC000966038509   -0.5300
     19 C19        -7.2957    1.8791   52.3136 C.3     1  ZINC000966038509   -0.1100
     20 C20        -5.8343    1.9341   51.8031 C.3     1  ZINC000966038509   -0.1100
     21 C21        -5.6179    3.4465   51.5485 C.3     1  ZINC000966038509   -0.1200
     22 C22        -6.9666    3.9308   50.9770 C.3     1  ZINC000966038509   -0.1200
     23 C23        -8.0333    2.9342   51.4635 C.3     1  ZINC000966038509   -0.1100
     24 C24        -9.8685   -1.0146   52.2309 C.3     1  ZINC000966038509    0.1000
     25 C25       -11.3083   -0.8272   52.7567 C.3     1  ZINC000966038509   -0.1100
     26 H26       -11.9908   -0.5975   51.9385 H       1  ZINC000966038509    0.1000
     27 C27       -11.7742   -2.0721   53.5145 C.3     1  ZINC000966038509   -0.1400
     28 H28       -11.7774   -2.9033   56.6589 H       1  ZINC000966038509    0.0800
     29 H29       -12.9427   -2.7360   57.9941 H       1  ZINC000966038509    0.0800
     30 H30       -12.9510   -1.5649   56.6537 H       1  ZINC000966038509    0.0700
     31 H31       -11.2227   -2.6480   59.7045 H       1  ZINC000966038509    0.1400
     32 H32        -8.8257    0.8792   59.9502 H       1  ZINC000966038509    0.1400
     33 H33        -8.6008    1.7747   56.9810 H       1  ZINC000966038509    0.0800
     34 H34       -10.2742    2.3792   56.9320 H       1  ZINC000966038509    0.0700
     35 H35        -9.2661    2.6659   58.3707 H       1  ZINC000966038509    0.0800
     36 H36        -9.8702   -0.5547   55.1042 H       1  ZINC000966038509    0.4000
     37 H37       -10.5785    1.8345   52.1948 H       1  ZINC000966038509    0.0800
     38 H38        -9.5948    1.8939   53.6893 H       1  ZINC000966038509    0.0800
     39 H39        -7.3426    2.1403   53.3708 H       1  ZINC000966038509    0.0900
     40 H40        -5.1452    1.5680   52.5642 H       1  ZINC000966038509    0.0700
     41 H41        -5.7266    1.3673   50.8783 H       1  ZINC000966038509    0.0700
     42 H42        -5.3920    3.9621   52.4819 H       1  ZINC000966038509    0.0700
     43 H43        -4.8189    3.6008   50.8233 H       1  ZINC000966038509    0.0700
     44 H44        -7.1923    4.9302   51.3487 H       1  ZINC000966038509    0.0700
     45 H45        -6.9301    3.9364   49.8877 H       1  ZINC000966038509    0.0700
     46 H46        -8.5144    2.4561   50.6102 H       1  ZINC000966038509    0.0800
     47 H47        -8.7767    3.4500   52.0712 H       1  ZINC000966038509    0.0700
     48 H48        -9.8917   -1.2857   51.1754 H       1  ZINC000966038509    0.0800
     49 H49        -9.3627   -1.7915   52.8043 H       1  ZINC000966038509    0.0700
     50 H50       -11.0960   -2.2666   54.3453 H       1  ZINC000966038509    0.0600
     51 H51       -12.7812   -1.9081   53.8982 H       1  ZINC000966038509    0.0700
     52 H52       -11.7773   -2.9281   52.8398 H       1  ZINC000966038509    0.0700
@<TRIPOS>BOND
     1     1     2    1
     2     1    28    1
     3     1    29    1
     4     1    30    1
     5     2     9   ar
     6     2     3   ar
     7     3     4   ar
     8     3    31    1
     9     4     5    1
    10     4     6   ar
    11     6     7   ar
    12     6    32    1
    13     7     8    1
    14     7     9   ar
    15     8    33    1
    16     8    34    1
    17     8    35    1
    18     9    10    1
    19    10    11    2
    20    10    12   am
    21    12    13    1
    22    12    36    1
    23    13    14    1
    24    13    25    1
    25    13    15    1
    26    15    16    1
    27    15    37    1
    28    15    38    1
    29    16    17   am
    30    16    24    1
    31    17    18    2
    32    17    19    1
    33    19    23    1
    34    19    20    1
    35    19    39    1
    36    20    21    1
    37    20    40    1
    38    20    41    1
    39    21    22    1
    40    21    42    1
    41    21    43    1
    42    22    23    1
    43    22    44    1
    44    22    45    1
    45    23    46    1
    46    23    47    1
    47    24    25    1
    48    24    48    1
    49    24    49    1
    50    25    26    1
    51    25    27    1
    52    27    50    1
    53    27    51    1
    54    27    52    1
@<TRIPOS>SUBSTRUCTURE
     1 ZINC000966038509        1 TEMP              0 ****  ****    0 ROOT


##########                                Name:    ZINC001272744746
##########                DOCK_Rotatable_Bonds:                   6
##########                         Heavy_Atoms:                  25
##########                    Molecular_Weight:             348.417
##########                DOCK_Rotatable_Bonds:                   6
##########                       Formal_Charge:           0.0299999
##########                     HBond_Acceptors:                   6
##########                        HBond_Donors:                   1
##########                         Heavy_Atoms:                  25
##########                          Grid_Score:          -28.204235
##########                     Grid_vdw_energy:          -27.948851
##########                      Grid_es_energy:           -0.255385
##########           Internal_energy_repulsive:           73.516304

@<TRIPOS>MOLECULE
ZINC001272744746
 50 52 1 0 0
SMALL
USER_CHARGES


@<TRIPOS>ATOM
      1 C1        -13.3532   -2.7744   55.5051 C.2     1  ZINC001272744746   -0.1700
      2 C2        -12.1875   -3.2092   55.9152 C.2     1  ZINC001272744746   -0.1700
      3 C3        -12.0106   -3.6592   57.3425 C.3     1  ZINC001272744746    0.1500
      4 N4        -11.8247   -2.4889   58.2040 N.am    1  ZINC001272744746   -0.6100
      5 C5        -10.6962   -1.5540   58.1003 C.3     1  ZINC001272744746    0.0700
      6 C6        -11.1307   -0.3029   58.8828 C.3     1  ZINC001272744746    0.1100
      7 C7        -12.1697   -0.8708   59.8669 C.3     1  ZINC001272744746   -0.1500
      8 C8        -12.6683   -2.1291   59.1878 C.2     1  ZINC001272744746    0.5200
      9 O9        -13.6773   -2.7294   59.4918 O.2     1  ZINC001272744746   -0.5200
     10 C10       -11.7765    0.7136   57.9515 C.3     1  ZINC001272744746   -0.1000
     11 C11       -10.7247    1.2446   56.9714 C.3     1  ZINC001272744746   -0.1200
     12 C12        -9.5541    1.8325   57.7643 C.3     1  ZINC001272744746   -0.1200
     13 C13        -8.9643    0.7538   58.6755 C.3     1  ZINC001272744746    0.0500
     14 N14       -10.0000    0.2755   59.6024 N.3     1  ZINC001272744746   -0.5100
     15 C15        -9.4425   -0.6836   60.5653 C.3     1  ZINC001272744746    0.0800
     16 C16        -9.5987   -0.1411   61.9625 C.ar    1  ZINC001272744746   -0.0200
     17 C17       -10.5726    0.8023   62.2308 C.ar    1  ZINC001272744746   -0.1700
     18 C18       -10.7196    1.3036   63.5130 C.ar    1  ZINC001272744746    0.1200
     19 F19       -11.6723    2.2257   63.7731 F       1  ZINC001272744746   -0.1200
     20 C20        -9.8888    0.8582   64.5306 C.ar    1  ZINC001272744746    0.0400
     21 O21       -10.0316    1.3488   65.7914 O.3     1  ZINC001272744746   -0.4700
     22 C22        -8.9096   -0.0916   64.2589 C.ar    1  ZINC001272744746    0.1300
     23 O23        -8.0928   -0.5316   65.2532 O.3     1  ZINC001272744746   -0.3000
     24 C24        -8.2955    0.0254   66.5535 C.3     1  ZINC001272744746    0.0200
     25 C25        -8.7712   -0.5924   62.9741 C.ar    1  ZINC001272744746   -0.1800
     26 H26       -14.1876   -2.7386   56.1899 H       1  ZINC001272744746    0.1000
     27 H27       -13.4789   -2.4477   54.4834 H       1  ZINC001272744746    0.1000
     28 H28       -11.3531   -3.2450   55.2303 H       1  ZINC001272744746    0.1100
     29 H29       -12.8956   -4.2091   57.6624 H       1  ZINC001272744746    0.0900
     30 H30       -11.1357   -4.3055   57.4139 H       1  ZINC001272744746    0.0800
     31 H31        -9.8031   -1.9888   58.5490 H       1  ZINC001272744746    0.0700
     32 H32       -10.5102   -1.3008   57.0565 H       1  ZINC001272744746    0.0900
     33 H33       -11.7013   -1.1078   60.8222 H       1  ZINC001272744746    0.1100
     34 H34       -12.9889   -0.1654   60.0067 H       1  ZINC001272744746    0.1100
     35 H35       -12.5834    0.2362   57.3956 H       1  ZINC001272744746    0.0700
     36 H36       -12.1776    1.5404   58.5376 H       1  ZINC001272744746    0.0800
     37 H37       -10.3666    0.4286   56.3436 H       1  ZINC001272744746    0.0600
     38 H38       -11.1676    2.0199   56.3462 H       1  ZINC001272744746    0.0700
     39 H39        -8.7874    2.1840   57.0738 H       1  ZINC001272744746    0.0700
     40 H40        -9.9079    2.6666   58.3703 H       1  ZINC001272744746    0.0700
     41 H41        -8.6071   -0.0786   58.0691 H       1  ZINC001272744746    0.0400
     42 H42        -8.1335    1.1722   59.2435 H       1  ZINC001272744746    0.0900
     43 H43        -9.9735   -1.6320   60.4823 H       1  ZINC001272744746    0.1000
     44 H44        -8.3849   -0.8395   60.3521 H       1  ZINC001272744746    0.0600
     45 H45       -11.2197    1.1493   61.4389 H       1  ZINC001272744746    0.1400
     46 H46        -9.4078    0.9784   66.4307 H       1  ZINC001272744746    0.3900
     47 H47        -9.3093   -0.1939   66.8887 H       1  ZINC001272744746    0.0600
     48 H48        -7.5801   -0.4103   67.2510 H       1  ZINC001272744746    0.1100
     49 H49        -8.1518    1.1050   66.5127 H       1  ZINC001272744746    0.0600
     50 H50        -8.0115   -1.3299   62.7612 H       1  ZINC001272744746    0.1400
@<TRIPOS>BOND
     1     1     2    2
     2     1    26    1
     3     1    27    1
     4     2     3    1
     5     2    28    1
     6     3     4    1
     7     3    29    1
     8     3    30    1
     9     4     8   am
    10     4     5    1
    11     5     6    1
    12     5    31    1
    13     5    32    1
    14     6    14    1
    15     6     7    1
    16     6    10    1
    17     7     8    1
    18     7    33    1
    19     7    34    1
    20     8     9    2
    21    10    11    1
    22    10    35    1
    23    10    36    1
    24    11    12    1
    25    11    37    1
    26    11    38    1
    27    12    13    1
    28    12    39    1
    29    12    40    1
    30    13    14    1
    31    13    41    1
    32    13    42    1
    33    14    15    1
    34    15    16    1
    35    15    43    1
    36    15    44    1
    37    16    25   ar
    38    16    17   ar
    39    17    18   ar
    40    17    45    1
    41    18    19    1
    42    18    20   ar
    43    20    21    1
    44    20    22   ar
    45    21    46    1
    46    22    23    1
    47    22    25   ar
    48    23    24    1
    49    24    47    1
    50    24    48    1
    51    24    49    1
    52    25    50    1
@<TRIPOS>SUBSTRUCTURE
     1 ZINC001272744746        1 TEMP              0 ****  ****    0 ROOT


##########                                Name:    ZINC000971513996
##########                DOCK_Rotatable_Bonds:                   6
##########                         Heavy_Atoms:                  27
##########                    Molecular_Weight:             369.464
##########                DOCK_Rotatable_Bonds:                   6
##########                       Formal_Charge:          -0.0300002
##########                     HBond_Acceptors:                   6
##########                        HBond_Donors:                   1
##########                         Heavy_Atoms:                  27
##########                          Grid_Score:          -28.194862
##########                     Grid_vdw_energy:          -27.418402
##########                      Grid_es_energy:           -0.776461
##########           Internal_energy_repulsive:           21.594578

@<TRIPOS>MOLECULE
ZINC000971513996
 54 57 1 0 0
SMALL
USER_CHARGES


@<TRIPOS>ATOM
      1 C1        -15.7992   -3.2501   58.9615 C.3     1  ZINC000971513996   -0.1600
      2 C2        -16.3394   -3.6229   57.5794 C.3     1  ZINC000971513996   -0.1400
      3 C3        -15.7739   -2.6596   56.5339 C.3     1  ZINC000971513996    0.0800
      4 H4        -16.3149   -2.7832   55.5957 H       1  ZINC000971513996    0.0800
      5 O5        -15.9217   -1.3153   56.9955 O.3     1  ZINC000971513996   -0.3600
      6 C6        -17.2729   -0.8501   57.0072 C.3     1  ZINC000971513996    0.0200
      7 C7        -14.3131   -2.9576   56.3144 C.2     1  ZINC000971513996    0.5400
      8 O8        -13.8355   -3.9910   56.7323 O.2     1  ZINC000971513996   -0.5100
      9 N9        -13.5373   -2.0756   55.6535 N.am    1  ZINC000971513996   -0.6400
     10 C10       -13.7192   -0.7619   55.0130 C.3     1  ZINC000971513996    0.1000
     11 C11       -12.2406   -0.4721   55.3352 C.3     1  ZINC000971513996   -0.1200
     12 H12       -11.6978    0.0717   54.5620 H       1  ZINC000971513996    0.1100
     13 C13       -12.0805    0.1213   56.7370 C.3     1  ZINC000971513996   -0.1200
     14 C14       -10.8076   -0.4382   57.3789 C.3     1  ZINC000971513996    0.1100
     15 N15       -10.9196   -1.8986   57.4231 N.am    1  ZINC000971513996   -0.6000
     16 C16       -10.8054   -2.5425   58.6016 C.2     1  ZINC000971513996    0.5900
     17 O17       -10.8975   -3.7547   58.6438 O.2     1  ZINC000971513996   -0.5200
     18 C18       -10.5693   -1.7797   59.8365 C.2     1  ZINC000971513996    0.0200
     19 C19        -9.3626   -1.6058   60.4362 C.2     1  ZINC000971513996   -0.1000
     20 C20        -9.5659   -0.8144   61.5926 C.ar    1  ZINC000971513996   -0.1100
     21 C21        -8.7082   -0.3218   62.5843 C.ar    1  ZINC000971513996   -0.0600
     22 C22        -9.2115    0.4338   63.6031 C.ar    1  ZINC000971513996   -0.1200
     23 C23        -8.2859    0.9622   64.6685 C.3     1  ZINC000971513996   -0.1100
     24 C24       -10.5690    0.7209   63.6671 C.ar    1  ZINC000971513996   -0.0800
     25 C25       -11.4326    0.2482   62.7042 C.ar    1  ZINC000971513996   -0.1300
     26 C26       -10.9434   -0.5250   61.6554 C.ar    1  ZINC000971513996    0.1100
     27 N27       -11.5381   -1.1206   60.5683 N.pl3   1  ZINC000971513996   -0.5800
     28 C28       -11.1539   -2.6601   56.2032 C.3     1  ZINC000971513996    0.0700
     29 C29       -12.1310   -1.9875   55.2536 C.3     1  ZINC000971513996    0.1300
     30 H30       -11.9860   -2.3306   54.2293 H       1  ZINC000971513996    0.1100
     31 H31       -16.2812   -3.8684   59.7188 H       1  ZINC000971513996    0.0600
     32 H32       -14.7224   -3.4168   58.9878 H       1  ZINC000971513996    0.0600
     33 H33       -16.0093   -2.1996   59.1624 H       1  ZINC000971513996    0.0600
     34 H34       -16.0391   -4.6418   57.3347 H       1  ZINC000971513996    0.0800
     35 H35       -17.4273   -3.5561   57.5843 H       1  ZINC000971513996    0.0800
     36 H36       -17.6477   -0.7968   55.9851 H       1  ZINC000971513996    0.0400
     37 H37       -17.8893   -1.5390   57.5848 H       1  ZINC000971513996    0.0500
     38 H38       -17.3122    0.1403   57.4607 H       1  ZINC000971513996    0.0900
     39 H39       -13.9277   -0.8236   53.9448 H       1  ZINC000971513996    0.0900
     40 H40       -14.4154   -0.1119   55.5429 H       1  ZINC000971513996    0.0800
     41 H41       -12.0062    1.2065   56.6667 H       1  ZINC000971513996    0.0900
     42 H42       -12.9436   -0.1466   57.3465 H       1  ZINC000971513996    0.0700
     43 H43        -9.9401   -0.1540   56.7833 H       1  ZINC000971513996    0.0800
     44 H44       -10.7036   -0.0466   58.3908 H       1  ZINC000971513996    0.1000
     45 H45        -8.4178   -2.0004   60.0926 H       1  ZINC000971513996    0.1500
     46 H46        -7.6512   -0.5398   62.5430 H       1  ZINC000971513996    0.1200
     47 H47        -7.9092    1.9406   64.3700 H       1  ZINC000971513996    0.0700
     48 H48        -8.8290    1.0535   65.6092 H       1  ZINC000971513996    0.0600
     49 H49        -7.4497    0.2748   64.7969 H       1  ZINC000971513996    0.0600
     50 H50       -10.9511    1.3204   64.4802 H       1  ZINC000971513996    0.1300
     51 H51       -12.4866    0.4765   62.7629 H       1  ZINC000971513996    0.1200
     52 H52       -12.4829   -1.0847   60.3513 H       1  ZINC000971513996    0.4200
     53 H53       -10.2056   -2.7867   55.6809 H       1  ZINC000971513996    0.0800
     54 H54       -11.5382   -3.6441   56.4719 H       1  ZINC000971513996    0.1200
@<TRIPOS>BOND
     1     1     2    1
     2     1    31    1
     3     1    32    1
     4     1    33    1
     5     2     3    1
     6     2    34    1
     7     2    35    1
     8     3     4    1
     9     3     5    1
    10     3     7    1
    11     5     6    1
    12     6    36    1
    13     6    37    1
    14     6    38    1
    15     7     8    2
    16     7     9   am
    17     9    29    1
    18     9    10    1
    19    10    11    1
    20    10    39    1
    21    10    40    1
    22    11    12    1
    23    11    29    1
    24    11    13    1
    25    13    14    1
    26    13    41    1
    27    13    42    1
    28    14    15    1
    29    14    43    1
    30    14    44    1
    31    15    16   am
    32    15    28    1
    33    16    17    2
    34    16    18    1
    35    18    27    1
    36    18    19    2
    37    19    20    1
    38    19    45    1
    39    20    26   ar
    40    20    21   ar
    41    21    22   ar
    42    21    46    1
    43    22    23    1
    44    22    24   ar
    45    23    47    1
    46    23    48    1
    47    23    49    1
    48    24    25   ar
    49    24    50    1
    50    25    26   ar
    51    25    51    1
    52    26    27    1
    53    27    52    1
    54    28    29    1
    55    28    53    1
    56    28    54    1
    57    29    30    1
@<TRIPOS>SUBSTRUCTURE
     1 ZINC000971513996        1 TEMP              0 ****  ****    0 ROOT


##########                                Name:    ZINC000549659617
##########                DOCK_Rotatable_Bonds:                   9
##########                         Heavy_Atoms:                  28
##########                    Molecular_Weight:              418.48
##########                DOCK_Rotatable_Bonds:                   9
##########                       Formal_Charge:          0.00999956
##########                     HBond_Acceptors:                   9
##########                        HBond_Donors:                   1
##########                         Heavy_Atoms:                  28
##########                          Grid_Score:          -28.180077
##########                     Grid_vdw_energy:          -27.671392
##########                      Grid_es_energy:           -0.508684
##########           Internal_energy_repulsive:           24.007097

@<TRIPOS>MOLECULE
ZINC000549659617
 53 55 1 0 0
SMALL
USER_CHARGES


@<TRIPOS>ATOM
      1 C1        -16.4926   -2.4510   60.4374 C.3     1  ZINC000549659617   -0.1500
      2 C2        -15.1927   -1.8439   59.9056 C.3     1  ZINC000549659617   -0.1500
      3 C3        -14.0140   -2.3546   60.7366 C.3     1  ZINC000549659617    0.1100
      4 N4        -13.1565   -1.2275   61.1118 N.am    1  ZINC000549659617   -0.6100
      5 C5        -13.4503   -0.4908   62.2015 C.2     1  ZINC000549659617    0.7100
      6 O6        -14.4278   -0.7605   62.8723 O.2     1  ZINC000549659617   -0.5700
      7 N7        -12.6604    0.5451   62.5476 N.am    1  ZINC000549659617   -0.7400
      8 C8        -12.9807    1.3469   63.7311 C.3     1  ZINC000549659617    0.2300
      9 H9        -13.6504    0.7839   64.3812 H       1  ZINC000549659617    0.1100
     10 C10       -11.7118    1.6711   64.4767 C.ar    1  ZINC000549659617   -0.0900
     11 C11       -11.6712    2.7556   65.3326 C.ar    1  ZINC000549659617   -0.0800
     12 C12       -10.5071    3.0530   66.0167 C.ar    1  ZINC000549659617   -0.1100
     13 C13        -9.3842    2.2655   65.8450 C.ar    1  ZINC000549659617   -0.0700
     14 C14        -9.4252    1.1801   64.9895 C.ar    1  ZINC000549659617   -0.1800
     15 C15        -8.2008    0.3219   64.8019 C.3     1  ZINC000549659617    0.5100
     16 F16        -7.0579    1.0647   65.1172 F       1  ZINC000549659617   -0.1800
     17 F17        -8.2794   -0.7929   65.6437 F       1  ZINC000549659617   -0.1700
     18 F18        -8.1285   -0.1029   63.4710 F       1  ZINC000549659617   -0.1700
     19 C19       -10.5902    0.8803   64.3089 C.ar    1  ZINC000549659617   -0.0500
     20 C20       -13.6635    2.6457   63.2975 C.3     1  ZINC000549659617   -0.1700
     21 C21       -15.1371    2.5683   62.8933 C.3     1  ZINC000549659617   -0.1700
     22 C22       -14.7409    3.2194   64.2200 C.3     1  ZINC000549659617   -0.1800
     23 C23       -11.9796   -0.9014   60.3027 C.3     1  ZINC000549659617    0.1700
     24 H24       -11.6603    0.1211   60.5039 H       1  ZINC000549659617    0.1100
     25 C25       -12.3053   -1.0673   58.8080 C.3     1  ZINC000549659617   -0.1400
     26 C26       -10.9862   -1.0547   58.0102 C.3     1  ZINC000549659617   -0.5900
     27 S27        -9.7223   -1.6898   59.1700 S.o2    1  ZINC000549659617    2.3900
     28 O28        -9.2821   -2.9683   58.7329 O.2     1  ZINC000549659617   -0.9300
     29 O29        -8.7722   -0.6675   59.4372 O.2     1  ZINC000549659617   -0.9400
     30 C30       -10.8274   -1.8894   60.6190 C.3     1  ZINC000549659617   -0.6100
     31 H31       -17.3324   -2.0872   59.8454 H       1  ZINC000549659617    0.0600
     32 H32       -16.4417   -3.5374   60.3667 H       1  ZINC000549659617    0.0600
     33 H33       -16.6296   -2.1607   61.4791 H       1  ZINC000549659617    0.0600
     34 H34       -15.0557   -2.1342   58.8639 H       1  ZINC000549659617    0.0700
     35 H35       -15.2436   -0.7574   59.9764 H       1  ZINC000549659617    0.0700
     36 H36       -14.3882   -2.8419   61.6370 H       1  ZINC000549659617    0.0800
     37 H37       -13.4379   -3.0695   60.1492 H       1  ZINC000549659617    0.0900
     38 H38       -11.8798    0.7595   62.0131 H       1  ZINC000549659617    0.4000
     39 H39       -12.5485    3.3708   65.4668 H       1  ZINC000549659617    0.1300
     40 H40       -10.4750    3.9008   66.6849 H       1  ZINC000549659617    0.1400
     41 H41        -8.4747    2.4982   66.3789 H       1  ZINC000549659617    0.1400
     42 H42       -10.6222    0.0325   63.6407 H       1  ZINC000549659617    0.1400
     43 H43       -13.0308    3.3533   62.7618 H       1  ZINC000549659617    0.1100
     44 H44       -15.4740    3.2250   62.0912 H       1  ZINC000549659617    0.0900
     45 H45       -15.6202    1.5921   62.9362 H       1  ZINC000549659617    0.0900
     46 H46       -14.9634    2.6715   65.1356 H       1  ZINC000549659617    0.1200
     47 H47       -14.8173    4.3044   64.2907 H       1  ZINC000549659617    0.0900
     48 H48       -12.8211   -2.0141   58.6482 H       1  ZINC000549659617    0.1100
     49 H49       -12.9410   -0.2456   58.4780 H       1  ZINC000549659617    0.0900
     50 H50       -11.0636   -1.7071   57.1403 H       1  ZINC000549659617    0.1400
     51 H51       -10.7401   -0.0387   57.7016 H       1  ZINC000549659617    0.1400
     52 H52       -10.3149   -1.6063   61.5384 H       1  ZINC000549659617    0.1400
     53 H53       -11.2014   -2.9113   60.6824 H       1  ZINC000549659617    0.1600
@<TRIPOS>BOND
     1     1     2    1
     2     1    31    1
     3     1    32    1
     4     1    33    1
     5     2     3    1
     6     2    34    1
     7     2    35    1
     8     3     4    1
     9     3    36    1
    10     3    37    1
    11     4     5   am
    12     4    23    1
    13     5     6    2
    14     5     7   am
    15     7     8    1
    16     7    38    1
    17     8     9    1
    18     8    10    1
    19     8    20    1
    20    10    19   ar
    21    10    11   ar
    22    11    12   ar
    23    11    39    1
    24    12    13   ar
    25    12    40    1
    26    13    14   ar
    27    13    41    1
    28    14    15    1
    29    14    19   ar
    30    15    16    1
    31    15    17    1
    32    15    18    1
    33    19    42    1
    34    20    22    1
    35    20    21    1
    36    20    43    1
    37    21    22    1
    38    21    44    1
    39    21    45    1
    40    22    46    1
    41    22    47    1
    42    23    24    1
    43    23    30    1
    44    23    25    1
    45    25    26    1
    46    25    48    1
    47    25    49    1
    48    26    27    1
    49    26    50    1
    50    26    51    1
    51    27    28    2
    52    27    29    2
    53    27    30    1
    54    30    52    1
    55    30    53    1
@<TRIPOS>SUBSTRUCTURE
     1 ZINC000549659617        1 TEMP              0 ****  ****    0 ROOT


##########                                Name:    ZINC000001174632
##########                DOCK_Rotatable_Bonds:                   6
##########                         Heavy_Atoms:                  29
##########                    Molecular_Weight:             385.419
##########                DOCK_Rotatable_Bonds:                   6
##########                       Formal_Charge:           0.0400005
##########                     HBond_Acceptors:                   5
##########                        HBond_Donors:                   1
##########                         Heavy_Atoms:                  29
##########                          Grid_Score:          -28.175369
##########                     Grid_vdw_energy:          -27.692669
##########                      Grid_es_energy:           -0.482700
##########           Internal_energy_repulsive:           16.026766

@<TRIPOS>MOLECULE
ZINC000001174632
 48 51 1 0 0
SMALL
USER_CHARGES


@<TRIPOS>ATOM
      1 C1        -14.9185   -0.8475   56.4881 C.3     1  ZINC000001174632    0.0400
      2 O2        -15.0189    0.4910   57.0416 O.3     1  ZINC000001174632   -0.3500
      3 C3        -15.0277    0.5985   58.3849 C.2     1  ZINC000001174632    0.5200
      4 O4        -15.1080    1.6932   58.9062 O.2     1  ZINC000001174632   -0.5200
      5 C5        -14.9401   -0.6114   59.2215 C.ar    1  ZINC000001174632   -0.2000
      6 C6        -15.9866   -1.5367   59.2312 C.ar    1  ZINC000001174632   -0.0200
      7 C7        -15.8981   -2.6666   60.0155 C.ar    1  ZINC000001174632   -0.1800
      8 C8        -14.7755   -2.8913   60.7960 C.ar    1  ZINC000001174632   -0.0300
      9 C9        -13.7330   -1.9867   60.7980 C.ar    1  ZINC000001174632   -0.1900
     10 C10       -13.8010   -0.8447   60.0097 C.ar    1  ZINC000001174632    0.2600
     11 N11       -12.7533    0.0669   60.0096 N.pl3   1  ZINC000001174632   -0.6500
     12 C12       -11.4844   -0.3470   60.3233 C.2     1  ZINC000001174632    0.2300
     13 C13       -10.6475   -1.0643   59.4902 C.2     1  ZINC000001174632   -0.1800
     14 C14       -10.9683   -1.5123   58.1168 C.ar    1  ZINC000001174632   -0.0600
     15 C15       -11.2653   -2.8534   57.8698 C.ar    1  ZINC000001174632   -0.0600
     16 C16       -11.5638   -3.2669   56.5884 C.ar    1  ZINC000001174632   -0.1500
     17 C17       -11.5686   -2.3514   55.5450 C.ar    1  ZINC000001174632    0.1400
     18 O18       -11.8633   -2.7631   54.2833 O.3     1  ZINC000001174632   -0.3200
     19 C19       -11.4898   -1.8929   53.2131 C.3     1  ZINC000001174632    0.0300
     20 C20       -11.2738   -1.0166   55.7865 C.ar    1  ZINC000001174632   -0.2100
     21 C21       -10.9803   -0.5938   57.0660 C.ar    1  ZINC000001174632   -0.0500
     22 C22        -9.3850   -1.3054   60.2002 C.2     1  ZINC000001174632    0.4500
     23 O23        -8.4180   -1.9049   59.7726 O.2     1  ZINC000001174632   -0.4100
     24 C24        -9.5139   -0.6757   61.5433 C.ar    1  ZINC000001174632   -0.1600
     25 C25        -8.6559   -0.5847   62.6231 C.ar    1  ZINC000001174632   -0.0500
     26 C26        -9.0601    0.0818   63.7757 C.ar    1  ZINC000001174632   -0.1100
     27 C27       -10.3131    0.6513   63.8446 C.ar    1  ZINC000001174632   -0.0900
     28 C28       -11.1841    0.5660   62.7649 C.ar    1  ZINC000001174632   -0.0800
     29 C29       -10.7906   -0.0903   61.6079 C.ar    1  ZINC000001174632   -0.0600
     30 H30       -15.7667   -1.4442   56.8240 H       1  ZINC000001174632    0.0700
     31 H31       -14.9221   -0.7919   55.3995 H       1  ZINC000001174632    0.1100
     32 H32       -13.9916   -1.3116   56.8251 H       1  ZINC000001174632    0.0700
     33 H33       -16.8642   -1.3666   58.6251 H       1  ZINC000001174632    0.1400
     34 H34       -16.7084   -3.3807   60.0220 H       1  ZINC000001174632    0.1300
     35 H35       -14.7160   -3.7798   61.4071 H       1  ZINC000001174632    0.1300
     36 H36       -12.8618   -2.1688   61.4098 H       1  ZINC000001174632    0.1300
     37 H37       -12.9193    0.9964   59.7874 H       1  ZINC000001174632    0.4300
     38 H38       -11.2611   -3.5664   58.6810 H       1  ZINC000001174632    0.1300
     39 H39       -11.7937   -4.3045   56.3965 H       1  ZINC000001174632    0.1300
     40 H40       -11.9923   -0.9332   53.3329 H       1  ZINC000001174632    0.0600
     41 H41       -10.4103   -1.7422   53.2274 H       1  ZINC000001174632    0.0600
     42 H42       -11.7817   -2.3398   52.2627 H       1  ZINC000001174632    0.1000
     43 H43       -11.2782   -0.3075   54.9719 H       1  ZINC000001174632    0.1300
     44 H44       -10.7514    0.4449   57.2531 H       1  ZINC000001174632    0.1300
     45 H45        -7.6736   -1.0306   62.5726 H       1  ZINC000001174632    0.1400
     46 H46        -8.3897    0.1529   64.6195 H       1  ZINC000001174632    0.1400
     47 H47       -10.6201    1.1664   64.7427 H       1  ZINC000001174632    0.1400
     48 H48       -12.1648    1.0143   62.8249 H       1  ZINC000001174632    0.1300
@<TRIPOS>BOND
     1     1     2    1
     2     1    30    1
     3     1    31    1
     4     1    32    1
     5     2     3    1
     6     3     4    2
     7     3     5    1
     8     5    10   ar
     9     5     6   ar
    10     6     7   ar
    11     6    33    1
    12     7     8   ar
    13     7    34    1
    14     8     9   ar
    15     8    35    1
    16     9    10   ar
    17     9    36    1
    18    10    11    1
    19    11    12    1
    20    11    37    1
    21    12    29    1
    22    12    13    2
    23    13    14    1
    24    13    22    1
    25    14    21   ar
    26    14    15   ar
    27    15    16   ar
    28    15    38    1
    29    16    17   ar
    30    16    39    1
    31    17    18    1
    32    17    20   ar
    33    18    19    1
    34    19    40    1
    35    19    41    1
    36    19    42    1
    37    20    21   ar
    38    20    43    1
    39    21    44    1
    40    22    23    2
    41    22    24    1
    42    24    29   ar
    43    24    25   ar
    44    25    26   ar
    45    25    45    1
    46    26    27   ar
    47    26    46    1
    48    27    28   ar
    49    27    47    1
    50    28    29   ar
    51    28    48    1
@<TRIPOS>SUBSTRUCTURE
     1 ZINC000001174632        1 TEMP              0 ****  ****    0 ROOT


##########                                Name:    ZINC001211202056
##########                DOCK_Rotatable_Bonds:                   4
##########                         Heavy_Atoms:                  23
##########                    Molecular_Weight:             386.181
##########                DOCK_Rotatable_Bonds:                   4
##########                       Formal_Charge:           0.0199999
##########                     HBond_Acceptors:                  11
##########                        HBond_Donors:                   3
##########                         Heavy_Atoms:                  23
##########                          Grid_Score:          -28.174984
##########                     Grid_vdw_energy:          -28.411530
##########                      Grid_es_energy:            0.236545
##########           Internal_energy_repulsive:            4.999164

@<TRIPOS>MOLECULE
ZINC001211202056
 31 32 1 0 0
SMALL
USER_CHARGES


@<TRIPOS>ATOM
      1 N1         -9.0190    4.0522   58.0080 N.pl3   1  ZINC001211202056   -0.8500
      2 C2         -9.2023    2.7378   58.4461 C.ar    1  ZINC001211202056    0.2900
      3 C3        -10.1660    2.4517   59.4038 C.ar    1  ZINC001211202056   -0.2000
      4 C4        -10.3448    1.1514   59.8350 C.ar    1  ZINC001211202056    0.0400
      5 C5         -9.5654    0.1351   59.3145 C.ar    1  ZINC001211202056   -0.7300
      6 S6         -9.7973   -1.5217   59.8676 S.o2    1  ZINC001211202056    2.6900
      7 O7         -8.7371   -2.2840   59.3070 O.2     1  ZINC001211202056   -0.9400
      8 O8        -10.0467   -1.4472   61.2645 O.2     1  ZINC001211202056   -0.9300
      9 N9        -11.1929   -2.0797   59.1725 N.am    1  ZINC001211202056   -1.0500
     10 C10       -11.3074   -2.1337   57.7804 C.ar    1  ZINC001211202056    0.1600
     11 C11       -11.5900   -0.9831   57.0499 C.ar    1  ZINC001211202056   -0.1200
     12 C12       -11.6935   -1.0868   55.6716 C.ar    1  ZINC001211202056   -0.0800
     13 C13       -11.5143   -2.3185   55.0716 C.ar    1  ZINC001211202056    0.0400
     14 C14       -11.6254   -2.4379   53.5734 C.3     1  ZINC001211202056    0.5300
     15 F15       -12.7255   -1.6979   53.1270 F       1  ZINC001211202056   -0.1700
     16 F16       -10.4592   -1.9447   52.9785 F       1  ZINC001211202056   -0.1600
     17 F17       -11.7946   -3.7820   53.2240 F       1  ZINC001211202056   -0.1700
     18 N18       -11.2469   -3.3913   55.7913 N.ar    1  ZINC001211202056   -0.4100
     19 C19       -11.1351   -3.3366   57.1040 C.ar    1  ZINC001211202056    0.1600
     20 Cl20      -10.7813   -4.7823   57.9977 Cl      1  ZINC001211202056    0.0000
     21 C21        -8.6042    0.4157   58.3602 C.ar    1  ZINC001211202056    0.0400
     22 C22        -8.4242    1.7130   57.9200 C.ar    1  ZINC001211202056   -0.1400
     23 Cl23       -7.2176    2.0648   56.7223 Cl      1  ZINC001211202056   -0.0500
     24 H24        -8.3481    4.2502   57.3360 H       1  ZINC001211202056    0.4100
     25 H25        -9.5653    4.7657   58.3730 H       1  ZINC001211202056    0.4100
     26 H26       -10.7750    3.2449   59.8116 H       1  ZINC001211202056    0.1400
     27 H27       -11.0943    0.9285   60.5799 H       1  ZINC001211202056    0.1500
     28 H28       -11.9310   -2.3692   59.7314 H       1  ZINC001211202056    0.4400
     29 H29       -11.7257   -0.0329   57.5450 H       1  ZINC001211202056    0.2000
     30 H30       -11.9120   -0.2146   55.0734 H       1  ZINC001211202056    0.1700
     31 H31        -7.9970   -0.3805   57.9557 H       1  ZINC001211202056    0.1500
@<TRIPOS>BOND
     1     1     2    1
     2     1    24    1
     3     1    25    1
     4     2    22   ar
     5     2     3   ar
     6     3     4   ar
     7     3    26    1
     8     4     5   ar
     9     4    27    1
    10     5     6    1
    11     5    21   ar
    12     6     7    2
    13     6     8    2
    14     6     9   am
    15     9    10    1
    16     9    28    1
    17    10    19   ar
    18    10    11   ar
    19    11    12   ar
    20    11    29    1
    21    12    13   ar
    22    12    30    1
    23    13    14    1
    24    13    18   ar
    25    14    15    1
    26    14    16    1
    27    14    17    1
    28    18    19   ar
    29    19    20    1
    30    21    22   ar
    31    21    31    1
    32    22    23    1
@<TRIPOS>SUBSTRUCTURE
     1 ZINC001211202056        1 TEMP              0 ****  ****    0 ROOT


##########                                Name:    ZINC000673213454
##########                DOCK_Rotatable_Bonds:                   7
##########                         Heavy_Atoms:                  26
##########                    Molecular_Weight:             360.453
##########                DOCK_Rotatable_Bonds:                   7
##########                       Formal_Charge:          -0.0100001
##########                     HBond_Acceptors:                   6
##########                        HBond_Donors:                   1
##########                         Heavy_Atoms:                  26
##########                          Grid_Score:          -28.174267
##########                     Grid_vdw_energy:          -28.002174
##########                      Grid_es_energy:           -0.172092
##########           Internal_energy_repulsive:           18.349281

@<TRIPOS>MOLECULE
ZINC000673213454
 54 56 1 0 0
SMALL
USER_CHARGES


@<TRIPOS>ATOM
      1 C1         -7.9031    2.6247   50.3161 C.3     1  ZINC000673213454   -0.1700
      2 C2         -7.2491    2.4730   51.6910 C.3     1  ZINC000673213454    0.1400
      3 H3         -7.1997    3.4463   52.1792 H       1  ZINC000673213454    0.0900
      4 C4         -5.8348    1.9137   51.5242 C.3     1  ZINC000673213454   -0.1200
      5 C5         -4.9718    2.9264   50.7689 C.3     1  ZINC000673213454   -0.1300
      6 H6         -5.3981    3.1326   49.7873 H       1  ZINC000673213454    0.0800
      7 C7         -3.5205    2.4053   50.6309 C.3     1  ZINC000673213454   -0.1500
      8 C8         -2.6893    3.6890   50.8830 C.3     1  ZINC000673213454    0.0500
      9 O9         -3.4379    4.3795   51.9064 O.3     1  ZINC000673213454   -0.3800
     10 C10        -4.8331    4.2288   51.5810 C.3     1  ZINC000673213454    0.0500
     11 N11        -8.0437    1.5552   52.5111 N.am    1  ZINC000673213454   -0.6900
     12 C12        -8.9579    2.0416   53.3737 C.2     1  ZINC000673213454    0.5100
     13 O13        -9.1239    3.2399   53.4700 O.2     1  ZINC000673213454   -0.5100
     14 C14        -9.7672    1.1054   54.2115 C.2     1  ZINC000673213454    0.5000
     15 O15        -9.2862    0.6173   55.2130 O.2     1  ZINC000673213454   -0.5200
     16 N16       -11.0313    0.8032   53.8549 N.am    1  ZINC000673213454   -0.5800
     17 C17       -11.5886    1.4122   52.6324 C.3     1  ZINC000673213454    0.1100
     18 C18       -12.4005    0.3872   51.8270 C.3     1  ZINC000673213454   -0.1700
     19 C19       -11.6920   -0.9522   51.8492 C.3     1  ZINC000673213454    0.0800
     20 O20       -12.1783   -1.7084   52.9504 O.3     1  ZINC000673213454   -0.3800
     21 C21       -11.5875   -1.5599   54.1888 C.3     1  ZINC000673213454    0.1500
     22 H22       -10.5208   -1.7696   54.1100 H       1  ZINC000673213454    0.0600
     23 C23       -12.2176   -2.5205   55.1642 C.ar    1  ZINC000673213454   -0.0800
     24 C24       -11.4394   -3.1418   56.1230 C.ar    1  ZINC000673213454   -0.0900
     25 C25       -12.0174   -4.0229   57.0177 C.ar    1  ZINC000673213454   -0.1300
     26 C26       -13.3736   -4.2826   56.9537 C.ar    1  ZINC000673213454   -0.1200
     27 C27       -14.1520   -3.6607   55.9955 C.ar    1  ZINC000673213454   -0.1300
     28 C28       -13.5747   -2.7762   55.1035 C.ar    1  ZINC000673213454   -0.0900
     29 C29       -11.7907   -0.1135   54.6849 C.3     1  ZINC000673213454    0.0700
     30 H30        -7.9525    1.6514   49.8280 H       1  ZINC000673213454    0.0600
     31 H31        -8.9106    3.0231   50.4349 H       1  ZINC000673213454    0.0600
     32 H32        -7.3119    3.3076   49.7060 H       1  ZINC000673213454    0.0700
     33 H33        -5.4000    1.7266   52.5061 H       1  ZINC000673213454    0.0800
     34 H34        -5.8768    0.9810   50.9618 H       1  ZINC000673213454    0.0900
     35 H35        -3.3057    1.6483   51.3852 H       1  ZINC000673213454    0.0800
     36 H36        -3.3407    2.0160   49.6289 H       1  ZINC000673213454    0.0800
     37 H37        -1.6917    3.4359   51.2420 H       1  ZINC000673213454    0.0900
     38 H38        -2.6307    4.2924   49.9772 H       1  ZINC000673213454    0.0600
     39 H39        -5.1687    5.0778   50.9856 H       1  ZINC000673213454    0.0600
     40 H40        -5.4216    4.1594   52.4958 H       1  ZINC000673213454    0.0900
     41 H41        -7.9118    0.5974   52.4333 H       1  ZINC000673213454    0.4100
     42 H42       -12.2366    2.2435   52.9102 H       1  ZINC000673213454    0.0800
     43 H43       -10.7721    1.7869   52.0151 H       1  ZINC000673213454    0.0900
     44 H44       -13.3913    0.2812   52.2687 H       1  ZINC000673213454    0.0800
     45 H45       -12.4973    0.7296   50.7968 H       1  ZINC000673213454    0.0900
     46 H46       -11.8932   -1.4873   50.9211 H       1  ZINC000673213454    0.1000
     47 H47       -10.6188   -0.7962   51.9585 H       1  ZINC000673213454    0.0500
     48 H48       -10.3798   -2.9389   56.1730 H       1  ZINC000673213454    0.1300
     49 H49       -11.4092   -4.5088   57.7664 H       1  ZINC000673213454    0.1200
     50 H50       -13.8251   -4.9715   57.6522 H       1  ZINC000673213454    0.1200
     51 H51       -15.2115   -3.8637   55.9452 H       1  ZINC000673213454    0.1200
     52 H52       -14.1829   -2.2903   54.3549 H       1  ZINC000673213454    0.1300
     53 H53       -11.4499   -0.0324   55.7171 H       1  ZINC000673213454    0.1200
     54 H54       -12.8485    0.1438   54.6306 H       1  ZINC000673213454    0.0800
@<TRIPOS>BOND
     1     1     2    1
     2     1    30    1
     3     1    31    1
     4     1    32    1
     5     2     3    1
     6     2     4    1
     7     2    11    1
     8     4     5    1
     9     4    33    1
    10     4    34    1
    11     5     6    1
    12     5    10    1
    13     5     7    1
    14     7     8    1
    15     7    35    1
    16     7    36    1
    17     8     9    1
    18     8    37    1
    19     8    38    1
    20     9    10    1
    21    10    39    1
    22    10    40    1
    23    11    12   am
    24    11    41    1
    25    12    13    2
    26    12    14    1
    27    14    15    2
    28    14    16   am
    29    16    29    1
    30    16    17    1
    31    17    18    1
    32    17    42    1
    33    17    43    1
    34    18    19    1
    35    18    44    1
    36    18    45    1
    37    19    20    1
    38    19    46    1
    39    19    47    1
    40    20    21    1
    41    21    22    1
    42    21    23    1
    43    21    29    1
    44    23    28   ar
    45    23    24   ar
    46    24    25   ar
    47    24    48    1
    48    25    26   ar
    49    25    49    1
    50    26    27   ar
    51    26    50    1
    52    27    28   ar
    53    27    51    1
    54    28    52    1
    55    29    53    1
    56    29    54    1
@<TRIPOS>SUBSTRUCTURE
     1 ZINC000673213454        1 TEMP              0 ****  ****    0 ROOT


##########                                Name:    ZINC000534890536
##########                DOCK_Rotatable_Bonds:                   6
##########                         Heavy_Atoms:                  30
##########                    Molecular_Weight:             411.476
##########                DOCK_Rotatable_Bonds:                   6
##########                       Formal_Charge:          0.00999957
##########                     HBond_Acceptors:                   7
##########                        HBond_Donors:                   1
##########                         Heavy_Atoms:                  30
##########                          Grid_Score:          -28.172256
##########                     Grid_vdw_energy:          -28.159660
##########                      Grid_es_energy:           -0.012597
##########           Internal_energy_repulsive:           14.411009

@<TRIPOS>MOLECULE
ZINC000534890536
 56 59 1 0 0
SMALL
USER_CHARGES


@<TRIPOS>ATOM
      1 C1         -2.9314    2.5303   50.3995 C.3     1  ZINC000534890536    0.0300
      2 O2         -3.6280    3.1251   51.4964 O.3     1  ZINC000534890536   -0.3200
      3 C3         -4.9184    2.7439   51.6874 C.ar    1  ZINC000534890536    0.1300
      4 C4         -5.4800    1.7642   50.8815 C.ar    1  ZINC000534890536   -0.2100
      5 C5         -6.7918    1.3782   51.0780 C.ar    1  ZINC000534890536   -0.0700
      6 C6         -7.5450    1.9676   52.0765 C.ar    1  ZINC000534890536   -0.1100
      7 C7         -8.9759    1.5449   52.2883 C.3     1  ZINC000534890536   -0.0600
      8 H8         -9.2499    0.7432   51.6025 H       1  ZINC000534890536    0.0900
      9 C9         -9.9395    2.7526   52.1455 C.3     1  ZINC000534890536   -0.1200
     10 C10       -11.1429    2.3396   53.0189 C.3     1  ZINC000534890536    0.1000
     11 N11       -10.6616    1.3350   53.9784 N.am    1  ZINC000534890536   -0.6400
     12 C12       -11.4150    0.7088   54.9041 C.2     1  ZINC000534890536    0.7300
     13 O13       -12.6012    0.9600   54.9940 O.2     1  ZINC000534890536   -0.5700
     14 N14       -10.8534   -0.1960   55.7302 N.am    1  ZINC000534890536   -0.7300
     15 C15       -11.6718   -0.8755   56.7375 C.3     1  ZINC000534890536    0.1600
     16 H16       -12.7107   -0.5636   56.6303 H       1  ZINC000534890536    0.1200
     17 C17       -11.5722   -2.3896   56.5366 C.3     1  ZINC000534890536   -0.1300
     18 C18       -12.2018   -3.0822   57.7513 C.3     1  ZINC000534890536   -0.1300
     19 C19       -11.3272   -2.8126   58.9764 C.3     1  ZINC000534890536    0.1100
     20 N20       -11.0539   -1.3867   59.1042 N.am    1  ZINC000534890536   -0.5600
     21 C21       -10.6300   -0.9088   60.3505 C.ar    1  ZINC000534890536    0.1000
     22 C22       -11.5445   -0.3373   61.2239 C.ar    1  ZINC000534890536   -0.0800
     23 C23       -11.1236    0.1329   62.4532 C.ar    1  ZINC000534890536   -0.1200
     24 C24        -9.7927    0.0357   62.8144 C.ar    1  ZINC000534890536   -0.0800
     25 C25        -8.8773   -0.5329   61.9473 C.ar    1  ZINC000534890536   -0.1500
     26 C26        -9.2924   -1.0108   60.7181 C.ar    1  ZINC000534890536    0.1100
     27 F27        -8.3986   -1.5666   59.8711 F       1  ZINC000534890536   -0.1300
     28 C28       -11.1803   -0.5103   58.1087 C.2     1  ZINC000534890536    0.5000
     29 O29       -10.8846    0.6467   58.3214 O.2     1  ZINC000534890536   -0.5100
     30 C30        -9.2187    1.1244   53.7593 C.3     1  ZINC000534890536    0.1300
     31 C31        -6.9874    2.9439   52.8814 C.ar    1  ZINC000534890536   -0.0700
     32 C32        -5.6744    3.3298   52.6923 C.ar    1  ZINC000534890536   -0.1500
     33 H33        -2.9008    1.4488   50.5320 H       1  ZINC000534890536    0.0600
     34 H34        -3.4477    2.7679   49.4694 H       1  ZINC000534890536    0.0600
     35 H35        -1.9144    2.9205   50.3604 H       1  ZINC000534890536    0.1000
     36 H36        -4.8924    1.3040   50.1010 H       1  ZINC000534890536    0.1300
     37 H37        -7.2295    0.6155   50.4509 H       1  ZINC000534890536    0.1300
     38 H38        -9.4778    3.6619   52.5303 H       1  ZINC000534890536    0.0800
     39 H39       -10.2434    2.8827   51.1069 H       1  ZINC000534890536    0.0900
     40 H40       -11.5284    3.2079   53.5533 H       1  ZINC000534890536    0.0700
     41 H41       -11.9250    1.9097   52.3930 H       1  ZINC000534890536    0.0700
     42 H42        -9.9072   -0.3975   55.6577 H       1  ZINC000534890536    0.4000
     43 H43       -12.1087   -2.6760   55.6320 H       1  ZINC000534890536    0.0900
     44 H44       -10.5252   -2.6803   56.4503 H       1  ZINC000534890536    0.0800
     45 H45       -13.2022   -2.6842   57.9213 H       1  ZINC000534890536    0.0800
     46 H46       -12.2585   -4.1558   57.5715 H       1  ZINC000534890536    0.1000
     47 H47       -11.8426   -3.1622   59.8710 H       1  ZINC000534890536    0.0800
     48 H48       -10.3858   -3.3521   58.8727 H       1  ZINC000534890536    0.0700
     49 H49       -12.5844   -0.2601   60.9430 H       1  ZINC000534890536    0.1300
     50 H50       -11.8354    0.5776   63.1329 H       1  ZINC000534890536    0.1300
     51 H51        -9.4670    0.4049   63.7755 H       1  ZINC000534890536    0.1400
     52 H52        -7.8382   -0.6074   62.2324 H       1  ZINC000534890536    0.1400
     53 H53        -8.9626    0.0745   53.9021 H       1  ZINC000534890536    0.0800
     54 H54        -8.6369    1.7527   54.4338 H       1  ZINC000534890536    0.0700
     55 H55        -7.5776    3.4025   53.6608 H       1  ZINC000534890536    0.1300
     56 H56        -5.2393    4.0923   53.3212 H       1  ZINC000534890536    0.1300
@<TRIPOS>BOND
     1     1     2    1
     2     1    33    1
     3     1    34    1
     4     1    35    1
     5     2     3    1
     6     3    32   ar
     7     3     4   ar
     8     4     5   ar
     9     4    36    1
    10     5     6   ar
    11     5    37    1
    12     6     7    1
    13     6    31   ar
    14     7     8    1
    15     7    30    1
    16     7     9    1
    17     9    10    1
    18     9    38    1
    19     9    39    1
    20    10    11    1
    21    10    40    1
    22    10    41    1
    23    11    12   am
    24    11    30    1
    25    12    13    2
    26    12    14   am
    27    14    15    1
    28    14    42    1
    29    15    16    1
    30    15    28    1
    31    15    17    1
    32    17    18    1
    33    17    43    1
    34    17    44    1
    35    18    19    1
    36    18    45    1
    37    18    46    1
    38    19    20    1
    39    19    47    1
    40    19    48    1
    41    20    21    1
    42    20    28   am
    43    21    26   ar
    44    21    22   ar
    45    22    23   ar
    46    22    49    1
    47    23    24   ar
    48    23    50    1
    49    24    25   ar
    50    24    51    1
    51    25    26   ar
    52    25    52    1
    53    26    27    1
    54    28    29    2
    55    30    53    1
    56    30    54    1
    57    31    32   ar
    58    31    55    1
    59    32    56    1
@<TRIPOS>SUBSTRUCTURE
     1 ZINC000534890536        1 TEMP              0 ****  ****    0 ROOT


##########                                Name:    ZINC000629379364
##########                DOCK_Rotatable_Bonds:                   5
##########                         Heavy_Atoms:                  23
##########                    Molecular_Weight:             386.261
##########                DOCK_Rotatable_Bonds:                   5
##########                       Formal_Charge:               -0.02
##########                     HBond_Acceptors:                   5
##########                        HBond_Donors:                   1
##########                         Heavy_Atoms:                  23
##########                          Grid_Score:          -28.140015
##########                     Grid_vdw_energy:          -25.119061
##########                      Grid_es_energy:           -3.020954
##########           Internal_energy_repulsive:           20.304567

@<TRIPOS>MOLECULE
ZINC000629379364
 44 46 1 0 0
SMALL
USER_CHARGES


@<TRIPOS>ATOM
      1 O1         -0.5981    4.6465   50.1945 O.co2   1  ZINC000629379364   -0.6800
      2 C2         -0.5082    3.4603   50.4612 C.2     1  ZINC000629379364    0.5000
      3 O3          0.5045    2.8456   50.1729 O.co2   1  ZINC000629379364   -0.6900
      4 C4         -1.6464    2.7551   51.1529 C.3     1  ZINC000629379364   -0.1600
      5 H5         -1.2788    1.8615   51.6574 H       1  ZINC000629379364    0.0800
      6 C6         -2.7285    2.3727   50.1281 C.3     1  ZINC000629379364   -0.1300
      7 C7         -3.9576    1.7866   50.8163 C.3     1  ZINC000629379364   -0.0100
      8 N8         -4.4888    2.6914   51.8539 N.4     1  ZINC000629379364   -0.3700
      9 H9         -5.2981    2.2755   52.2899 H       1  ZINC000629379364    0.4200
     10 C10        -4.8537    3.9810   51.2524 C.3     1  ZINC000629379364   -0.0200
     11 C11        -6.2655    3.8908   50.6698 C.3     1  ZINC000629379364    0.0300
     12 O12        -7.1572    3.3741   51.6597 O.3     1  ZINC000629379364   -0.3200
     13 C13        -8.4884    3.4993   51.4164 C.ar    1  ZINC000629379364    0.1600
     14 C14        -9.4047    3.2621   52.4300 C.ar    1  ZINC000629379364   -0.2300
     15 C15       -10.7597    3.3902   52.1800 C.ar    1  ZINC000629379364    0.1500
     16 F16       -11.6533    3.1593   53.1667 F       1  ZINC000629379364   -0.1200
     17 C17       -11.2000    3.7553   50.9190 C.ar    1  ZINC000629379364   -0.1600
     18 C18       -10.2865    3.9917   49.9073 C.ar    1  ZINC000629379364   -0.0300
     19 Br19      -10.8910    4.4903   48.1863 Br      1  ZINC000629379364   -0.0100
     20 C20        -8.9321    3.8703   50.1552 C.ar    1  ZINC000629379364   -0.1300
     21 C21        -3.4399    2.8847   52.8422 C.3     1  ZINC000629379364   -0.0100
     22 H22        -3.0648    1.9193   53.1817 H       1  ZINC000629379364    0.1400
     23 C23        -3.7943    3.7632   54.0464 C.3     1  ZINC000629379364   -0.1300
     24 C24        -2.4052    4.2374   54.5534 C.3     1  ZINC000629379364   -0.1200
     25 C25        -1.4443    4.1477   53.3422 C.3     1  ZINC000629379364   -0.1100
     26 C26        -2.2998    3.6872   52.1588 C.3     1  ZINC000629379364   -0.0700
     27 H27        -2.7348    4.5511   51.6562 H       1  ZINC000629379364    0.1000
     28 H28        -3.0217    3.2616   49.5696 H       1  ZINC000629379364    0.0800
     29 H29        -2.3210    1.6356   49.4363 H       1  ZINC000629379364    0.1100
     30 H30        -4.7319    1.6092   50.0697 H       1  ZINC000629379364    0.1200
     31 H31        -3.6872    0.8370   51.2778 H       1  ZINC000629379364    0.1300
     32 H32        -4.8245    4.7589   52.0154 H       1  ZINC000629379364    0.1400
     33 H33        -4.1477    4.2242   50.4583 H       1  ZINC000629379364    0.1700
     34 H34        -6.5968    4.8835   50.3648 H       1  ZINC000629379364    0.1100
     35 H35        -6.2598    3.2280   49.8045 H       1  ZINC000629379364    0.0900
     36 H36        -9.0609    2.9773   53.4134 H       1  ZINC000629379364    0.1500
     37 H37       -12.2577    3.8554   50.7250 H       1  ZINC000629379364    0.1500
     38 H38        -8.2197    4.0554   49.3648 H       1  ZINC000629379364    0.1500
     39 H39        -4.4026    4.6133   53.7377 H       1  ZINC000629379364    0.0800
     40 H40        -4.3054    3.1798   54.8121 H       1  ZINC000629379364    0.0900
     41 H41        -2.4672    5.2668   54.9063 H       1  ZINC000629379364    0.0800
     42 H42        -2.0577    3.5866   55.3557 H       1  ZINC000629379364    0.0800
     43 H43        -0.9977    5.1217   53.1418 H       1  ZINC000629379364    0.0900
     44 H44        -0.6672    3.4070   53.5311 H       1  ZINC000629379364    0.0800
@<TRIPOS>BOND
     1     1     2   ar
     2     2     3   ar
     3     2     4    1
     4     4     5    1
     5     4    26    1
     6     4     6    1
     7     6     7    1
     8     6    28    1
     9     6    29    1
    10     7     8    1
    11     7    30    1
    12     7    31    1
    13     8     9    1
    14     8    10    1
    15     8    21    1
    16    10    11    1
    17    10    32    1
    18    10    33    1
    19    11    12    1
    20    11    34    1
    21    11    35    1
    22    12    13    1
    23    13    20   ar
    24    13    14   ar
    25    14    15   ar
    26    14    36    1
    27    15    16    1
    28    15    17   ar
    29    17    18   ar
    30    17    37    1
    31    18    19    1
    32    18    20   ar
    33    20    38    1
    34    21    22    1
    35    21    26    1
    36    21    23    1
    37    23    24    1
    38    23    39    1
    39    23    40    1
    40    24    25    1
    41    24    41    1
    42    24    42    1
    43    25    26    1
    44    25    43    1
    45    25    44    1
    46    26    27    1
@<TRIPOS>SUBSTRUCTURE
     1 ZINC000629379364        1 TEMP              0 ****  ****    0 ROOT


##########                                Name:    ZINC000842947763
##########                DOCK_Rotatable_Bonds:                   7
##########                         Heavy_Atoms:                  24
##########                    Molecular_Weight:             365.373
##########                DOCK_Rotatable_Bonds:                   7
##########                       Formal_Charge:          0.00999997
##########                     HBond_Acceptors:                   9
##########                        HBond_Donors:                   0
##########                         Heavy_Atoms:                  24
##########                          Grid_Score:          -28.129198
##########                     Grid_vdw_energy:          -27.653124
##########                      Grid_es_energy:           -0.476074
##########           Internal_energy_repulsive:           32.787468

@<TRIPOS>MOLECULE
ZINC000842947763
 42 43 1 0 0
SMALL
USER_CHARGES


@<TRIPOS>ATOM
      1 C1         -8.3417    2.3548   53.2578 C.3     1  ZINC000842947763   -0.1600
      2 C2         -8.3086    1.4462   52.0274 C.3     1  ZINC000842947763   -0.1000
      3 H3         -8.9096    1.8884   51.2328 H       1  ZINC000842947763    0.1000
      4 C4         -8.8765    0.0730   52.3921 C.3     1  ZINC000842947763    0.0800
      5 O5        -10.3271    0.1243   52.3570 O.3     1  ZINC000842947763   -0.3500
      6 C6        -10.9897   -0.8850   52.9558 C.2     1  ZINC000842947763    0.5200
      7 O7        -11.6135   -1.6841   52.2859 O.2     1  ZINC000842947763   -0.5100
      8 C8        -10.9579   -1.0192   54.4232 C.ar    1  ZINC000842947763   -0.1600
      9 C9        -10.7848    0.1097   55.2302 C.ar    1  ZINC000842947763   -0.0200
     10 C10       -10.7564   -0.0221   56.5972 C.ar    1  ZINC000842947763   -0.1700
     11 C11       -10.8997   -1.2827   57.1897 C.ar    1  ZINC000842947763    0.2000
     12 C12       -11.0713   -2.3987   56.3791 C.ar    1  ZINC000842947763   -0.1500
     13 C13       -11.1063   -2.2754   55.0187 C.ar    1  ZINC000842947763   -0.0100
     14 C14       -11.2002   -3.6183   57.2650 C.3     1  ZINC000842947763   -0.0800
     15 C15       -11.0815   -3.0676   58.6954 C.3     1  ZINC000842947763    0.1100
     16 N16       -10.8993   -1.6226   58.5372 N.am    1  ZINC000842947763   -0.9400
     17 S17       -10.7182   -0.5487   59.7846 S.o2    1  ZINC000842947763    2.6100
     18 C18        -9.2272   -1.1098   60.6521 C.3     1  ZINC000842947763   -0.6700
     19 O19       -10.4828    0.6972   59.1431 O.2     1  ZINC000842947763   -0.9300
     20 O20       -11.8703   -0.7512   60.5913 O.2     1  ZINC000842947763   -0.9400
     21 C21        -6.8643    1.2896   51.5475 C.3     1  ZINC000842947763   -0.1600
     22 C22        -6.3760    2.6148   50.9591 C.3     1  ZINC000842947763    0.4600
     23 F23        -5.3806    2.3644   50.0086 F       1  ZINC000842947763   -0.1800
     24 F24        -7.4469    3.2773   50.3496 F       1  ZINC000842947763   -0.1800
     25 F25        -5.8539    3.4147   51.9813 F       1  ZINC000842947763   -0.1800
     26 H26        -8.0702    3.3697   52.9673 H       1  ZINC000842947763    0.0700
     27 H27        -9.3454    2.3546   53.6829 H       1  ZINC000842947763    0.0700
     28 H28        -7.6327    1.9875   53.9999 H       1  ZINC000842947763    0.0600
     29 H29        -8.5218   -0.6687   51.6764 H       1  ZINC000842947763    0.0800
     30 H30        -8.5467   -0.2021   53.3940 H       1  ZINC000842947763    0.0800
     31 H31       -10.6731    1.0846   54.7789 H       1  ZINC000842947763    0.1500
     32 H32       -10.6227    0.8512   57.2184 H       1  ZINC000842947763    0.1500
     33 H33       -11.2407   -3.1515   54.4017 H       1  ZINC000842947763    0.1400
     34 H34       -12.1703   -4.0937   57.1193 H       1  ZINC000842947763    0.1000
     35 H35       -10.3950   -4.3241   57.0606 H       1  ZINC000842947763    0.1000
     36 H36       -11.9925   -3.2745   59.2571 H       1  ZINC000842947763    0.1000
     37 H37       -10.2189   -3.5046   59.1985 H       1  ZINC000842947763    0.0900
     38 H38        -8.3785   -1.0862   59.9684 H       1  ZINC000842947763    0.1300
     39 H39        -9.0301   -0.4520   61.4986 H       1  ZINC000842947763    0.1400
     40 H40        -9.3768   -2.1283   61.0105 H       1  ZINC000842947763    0.1300
     41 H41        -6.2302    1.0100   52.3888 H       1  ZINC000842947763    0.1200
     42 H42        -6.8174    0.5136   50.7834 H       1  ZINC000842947763    0.1100
@<TRIPOS>BOND
     1     1     2    1
     2     1    26    1
     3     1    27    1
     4     1    28    1
     5     2     3    1
     6     2     4    1
     7     2    21    1
     8     4     5    1
     9     4    29    1
    10     4    30    1
    11     5     6    1
    12     6     7    2
    13     6     8    1
    14     8    13   ar
    15     8     9   ar
    16     9    10   ar
    17     9    31    1
    18    10    11   ar
    19    10    32    1
    20    11    16    1
    21    11    12   ar
    22    12    13   ar
    23    12    14    1
    24    13    33    1
    25    14    15    1
    26    14    34    1
    27    14    35    1
    28    15    16    1
    29    15    36    1
    30    15    37    1
    31    16    17   am
    32    17    18    1
    33    17    19    2
    34    17    20    2
    35    18    38    1
    36    18    39    1
    37    18    40    1
    38    21    22    1
    39    21    41    1
    40    21    42    1
    41    22    23    1
    42    22    24    1
    43    22    25    1
@<TRIPOS>SUBSTRUCTURE
     1 ZINC000842947763        1 TEMP              0 ****  ****    0 ROOT


##########                                Name:    ZINC000587344575
##########                DOCK_Rotatable_Bonds:                   7
##########                         Heavy_Atoms:                  30
##########                    Molecular_Weight:             408.475
##########                DOCK_Rotatable_Bonds:                   7
##########                       Formal_Charge:          -0.0100002
##########                     HBond_Acceptors:                   7
##########                        HBond_Donors:                   2
##########                         Heavy_Atoms:                  30
##########                          Grid_Score:          -28.093573
##########                     Grid_vdw_energy:          -27.813435
##########                      Grid_es_energy:           -0.280139
##########           Internal_energy_repulsive:           16.554825

@<TRIPOS>MOLECULE
ZINC000587344575
 55 57 1 0 0
SMALL
USER_CHARGES


@<TRIPOS>ATOM
      1 C1         -6.2218    3.1647   49.7889 C.3     1  ZINC000587344575   -0.1200
      2 C2         -6.6466    2.7440   51.1722 C.ar    1  ZINC000587344575    0.0000
      3 C3         -7.8118    2.0329   51.3489 C.ar    1  ZINC000587344575   -0.1600
      4 C4         -8.2044    1.6437   52.6258 C.ar    1  ZINC000587344575    0.1800
      5 N5         -9.3853    0.9231   52.8011 N.am    1  ZINC000587344575   -0.6700
      6 C6         -9.4104   -0.4008   52.5498 C.2     1  ZINC000587344575    0.5200
      7 O7         -8.4060   -0.9653   52.1711 O.2     1  ZINC000587344575   -0.5000
      8 C8        -10.6866   -1.1797   52.7392 C.3     1  ZINC000587344575   -0.1200
      9 H9        -10.6192   -2.1435   52.2347 H       1  ZINC000587344575    0.1100
     10 C10       -11.8913   -0.3749   52.2000 C.3     1  ZINC000587344575   -0.1200
     11 C11       -12.9980   -0.6661   53.2446 C.3     1  ZINC000587344575    0.0400
     12 N12       -12.2535   -0.6949   54.5294 N.3     1  ZINC000587344575   -0.4800
     13 C13       -12.9729   -1.3772   55.5083 C.ar    1  ZINC000587344575    0.0700
     14 C14       -13.4090   -2.6760   55.2699 C.ar    1  ZINC000587344575   -0.1200
     15 C15       -14.1208   -3.3537   56.2349 C.ar    1  ZINC000587344575   -0.0700
     16 C16       -14.4050   -2.7356   57.4556 C.ar    1  ZINC000587344575    0.0000
     17 C17       -15.1445   -3.4383   58.4606 C.1     1  ZINC000587344575    0.2500
     18 N18       -15.7312   -3.9956   59.2579 N.1     1  ZINC000587344575   -0.4000
     19 C19       -13.9653   -1.4295   57.6938 C.ar    1  ZINC000587344575   -0.1000
     20 C20       -13.2491   -0.7587   56.7264 C.ar    1  ZINC000587344575    0.1300
     21 F21       -12.8231    0.5028   56.9549 F       1  ZINC000587344575   -0.1200
     22 C22       -10.9728   -1.3801   54.2389 C.3     1  ZINC000587344575    0.0500
     23 C23        -7.4213    1.9715   53.7279 C.ar    1  ZINC000587344575   -0.1400
     24 C24        -6.2545    2.6825   53.5583 C.ar    1  ZINC000587344575   -0.0600
     25 C25        -5.8547    3.0704   52.2767 C.ar    1  ZINC000587344575   -0.1600
     26 C26        -4.6042    3.8323   52.0910 C.2     1  ZINC000587344575    0.5600
     27 O27        -3.8346    3.5296   51.1999 O.2     1  ZINC000587344575   -0.5300
     28 N28        -4.3157    4.8635   52.9094 N.am    1  ZINC000587344575   -0.7200
     29 C29        -3.0737    5.6186   52.7263 C.3     1  ZINC000587344575    0.1400
     30 C30        -3.2841    7.0644   53.1803 C.3     1  ZINC000587344575   -0.1600
     31 C31        -1.9606    4.9794   53.5591 C.3     1  ZINC000587344575   -0.1600
     32 H32        -5.5067    2.4435   49.3933 H       1  ZINC000587344575    0.0800
     33 H33        -7.0948    3.2054   49.1375 H       1  ZINC000587344575    0.0600
     34 H34        -5.7568    4.1494   49.8353 H       1  ZINC000587344575    0.1000
     35 H35        -8.4223    1.7771   50.4954 H       1  ZINC000587344575    0.1300
     36 H36       -10.1886    1.3746   53.1040 H       1  ZINC000587344575    0.4100
     37 H37       -11.6611    0.6901   52.1688 H       1  ZINC000587344575    0.0900
     38 H38       -12.1864   -0.7357   51.2147 H       1  ZINC000587344575    0.0900
     39 H39       -13.7422    0.1303   53.2489 H       1  ZINC000587344575    0.0900
     40 H40       -13.4666   -1.6308   53.0497 H       1  ZINC000587344575    0.0600
     41 H41       -13.1894   -3.1539   54.3266 H       1  ZINC000587344575    0.1400
     42 H42       -14.4594   -4.3621   56.0480 H       1  ZINC000587344575    0.1400
     43 H43       -14.1831   -0.9489   58.6362 H       1  ZINC000587344575    0.1500
     44 H44       -11.0612   -2.4432   54.4635 H       1  ZINC000587344575    0.0600
     45 H45       -10.1722   -0.9380   54.8320 H       1  ZINC000587344575    0.1100
     46 H46        -7.7291    1.6682   54.7177 H       1  ZINC000587344575    0.1400
     47 H47        -5.6470    2.9367   54.4143 H       1  ZINC000587344575    0.1300
     48 H48        -4.9302    5.1057   53.6197 H       1  ZINC000587344575    0.4000
     49 H49        -2.7925    5.6057   51.6733 H       1  ZINC000587344575    0.0900
     50 H50        -3.5653    7.0773   54.2334 H       1  ZINC000587344575    0.0600
     51 H51        -2.3601    7.6262   53.0440 H       1  ZINC000587344575    0.0700
     52 H52        -4.0771    7.5198   52.5870 H       1  ZINC000587344575    0.0600
     53 H53        -2.2417    4.9923   54.6122 H       1  ZINC000587344575    0.0600
     54 H54        -1.8107    3.9494   53.2358 H       1  ZINC000587344575    0.0600
     55 H55        -1.0366    5.5412   53.4229 H       1  ZINC000587344575    0.0700
@<TRIPOS>BOND
     1     1     2    1
     2     1    32    1
     3     1    33    1
     4     1    34    1
     5     2    25   ar
     6     2     3   ar
     7     3     4   ar
     8     3    35    1
     9     4     5    1
    10     4    23   ar
    11     5     6   am
    12     5    36    1
    13     6     7    2
    14     6     8    1
    15     8     9    1
    16     8    22    1
    17     8    10    1
    18    10    11    1
    19    10    37    1
    20    10    38    1
    21    11    12    1
    22    11    39    1
    23    11    40    1
    24    12    13    1
    25    12    22    1
    26    13    20   ar
    27    13    14   ar
    28    14    15   ar
    29    14    41    1
    30    15    16   ar
    31    15    42    1
    32    16    17    1
    33    16    19   ar
    34    17    18    3
    35    19    20   ar
    36    19    43    1
    37    20    21    1
    38    22    44    1
    39    22    45    1
    40    23    24   ar
    41    23    46    1
    42    24    25   ar
    43    24    47    1
    44    25    26    1
    45    26    27    2
    46    26    28   am
    47    28    29    1
    48    28    48    1
    49    29    30    1
    50    29    31    1
    51    29    49    1
    52    30    50    1
    53    30    51    1
    54    30    52    1
    55    31    53    1
    56    31    54    1
    57    31    55    1
@<TRIPOS>SUBSTRUCTURE
     1 ZINC000587344575        1 TEMP              0 ****  ****    0 ROOT


##########                                Name:    ZINC000156038173
##########                DOCK_Rotatable_Bonds:                  10
##########                         Heavy_Atoms:                  27
##########                    Molecular_Weight:             396.357
##########                DOCK_Rotatable_Bonds:                  10
##########                       Formal_Charge:         -0.00999981
##########                     HBond_Acceptors:                  10
##########                        HBond_Donors:                   1
##########                         Heavy_Atoms:                  27
##########                          Grid_Score:          -28.093168
##########                     Grid_vdw_energy:          -27.880232
##########                      Grid_es_energy:           -0.212936
##########           Internal_energy_repulsive:           19.272211

@<TRIPOS>MOLECULE
ZINC000156038173
 48 48 1 0 0
SMALL
USER_CHARGES


@<TRIPOS>ATOM
      1 C1         -7.7779   -0.2248   52.1497 C.3     1  ZINC000156038173    0.0700
      2 N2         -8.0880    0.9914   52.9051 N.am    1  ZINC000156038173   -0.6300
      3 C3         -7.0997    2.0691   52.9963 C.3     1  ZINC000156038173    0.1500
      4 C4         -7.1139    2.8848   51.7020 C.3     1  ZINC000156038173   -0.1400
      5 C5         -6.0010    2.4159   50.8005 C.2     1  ZINC000156038173    0.4700
      6 O6         -6.1987    2.2822   49.6161 O.2     1  ZINC000156038173   -0.5000
      7 O7         -4.7901    2.1466   51.3134 O.3     1  ZINC000156038173   -0.3500
      8 C8         -3.7294    3.0981   51.0340 C.3     1  ZINC000156038173    0.1200
      9 C9         -4.3109    4.5127   50.9938 C.3     1  ZINC000156038173   -0.1800
     10 C10        -2.6670    3.0144   52.1318 C.3     1  ZINC000156038173   -0.1400
     11 C11        -3.0928    2.7697   49.6820 C.3     1  ZINC000156038173   -0.1800
     12 C12        -9.2825    1.1190   53.5162 C.2     1  ZINC000156038173    0.7100
     13 O13        -9.5404    2.1291   54.1419 O.2     1  ZINC000156038173   -0.5700
     14 N14       -10.1910    0.1270   53.4336 N.am    1  ZINC000156038173   -0.7400
     15 C15       -11.4900    0.2664   54.0964 C.3     1  ZINC000156038173    0.1700
     16 H16       -11.3879    0.9207   54.9622 H       1  ZINC000156038173    0.1500
     17 C17       -11.9730   -1.0887   54.5453 C.ar    1  ZINC000156038173   -0.1300
     18 C18       -11.8508   -2.1791   53.7048 C.ar    1  ZINC000156038173   -0.0700
     19 C19       -12.2935   -3.4230   54.1151 C.ar    1  ZINC000156038173   -0.1000
     20 C20       -12.8591   -3.5788   55.3665 C.ar    1  ZINC000156038173   -0.1100
     21 C21       -12.9829   -2.4888   56.2105 C.ar    1  ZINC000156038173    0.0700
     22 F22       -13.5357   -2.6401   57.4339 F       1  ZINC000156038173   -0.1200
     23 C23       -12.5338   -1.2425   55.8013 C.ar    1  ZINC000156038173    0.1000
     24 F24       -12.6537   -0.1771   56.6234 F       1  ZINC000156038173   -0.1200
     25 C25       -12.4999    0.8693   53.1178 C.3     1  ZINC000156038173    0.4500
     26 F26       -12.2728    0.3541   51.8371 F       1  ZINC000156038173   -0.1700
     27 F27       -13.7975    0.5448   53.5277 F       1  ZINC000156038173   -0.1600
     28 F28       -12.3526    2.2604   53.0938 F       1  ZINC000156038173   -0.1700
     29 H29        -7.3122   -0.9549   52.8116 H       1  ZINC000156038173    0.0600
     30 H30        -8.6974   -0.6416   51.7386 H       1  ZINC000156038173    0.0700
     31 H31        -7.0933    0.0170   51.3367 H       1  ZINC000156038173    0.0800
     32 H32        -7.3458    2.7175   53.8372 H       1  ZINC000156038173    0.1000
     33 H33        -6.1083    1.6412   53.1454 H       1  ZINC000156038173    0.0900
     34 H34        -8.0708    2.7501   51.1981 H       1  ZINC000156038173    0.1100
     35 H35        -6.9717    3.9399   51.9360 H       1  ZINC000156038173    0.1100
     36 H36        -4.7644    4.7467   51.9569 H       1  ZINC000156038173    0.0600
     37 H37        -3.5146    5.2270   50.7841 H       1  ZINC000156038173    0.0700
     38 H38        -5.0677    4.5723   50.2117 H       1  ZINC000156038173    0.0800
     39 H39        -2.2528    2.0065   52.1605 H       1  ZINC000156038173    0.0700
     40 H40        -1.8708    3.7286   51.9221 H       1  ZINC000156038173    0.0800
     41 H41        -3.1206    3.2482   53.0950 H       1  ZINC000156038173    0.0700
     42 H42        -3.8497    2.8293   48.9000 H       1  ZINC000156038173    0.0800
     43 H43        -2.2966    3.4840   49.4723 H       1  ZINC000156038173    0.0700
     44 H44        -2.6786    1.7618   49.7107 H       1  ZINC000156038173    0.0600
     45 H45        -9.9848   -0.6794   52.9355 H       1  ZINC000156038173    0.4100
     46 H46       -11.4094   -2.0593   52.7265 H       1  ZINC000156038173    0.1400
     47 H47       -12.1975   -4.2738   53.4569 H       1  ZINC000156038173    0.1500
     48 H48       -13.2048   -4.5509   55.6857 H       1  ZINC000156038173    0.1500
@<TRIPOS>BOND
     1     1     2    1
     2     1    29    1
     3     1    30    1
     4     1    31    1
     5     2     3    1
     6     2    12   am
     7     3     4    1
     8     3    32    1
     9     3    33    1
    10     4     5    1
    11     4    34    1
    12     4    35    1
    13     5     6    2
    14     5     7    1
    15     7     8    1
    16     8     9    1
    17     8    10    1
    18     8    11    1
    19     9    36    1
    20     9    37    1
    21     9    38    1
    22    10    39    1
    23    10    40    1
    24    10    41    1
    25    11    42    1
    26    11    43    1
    27    11    44    1
    28    12    13    2
    29    12    14   am
    30    14    15    1
    31    14    45    1
    32    15    16    1
    33    15    17    1
    34    15    25    1
    35    17    23   ar
    36    17    18   ar
    37    18    19   ar
    38    18    46    1
    39    19    20   ar
    40    19    47    1
    41    20    21   ar
    42    20    48    1
    43    21    22    1
    44    21    23   ar
    45    23    24    1
    46    25    26    1
    47    25    27    1
    48    25    28    1
@<TRIPOS>SUBSTRUCTURE
     1 ZINC000156038173        1 TEMP              0 ****  ****    0 ROOT


##########                                Name:    ZINC001067316277
##########                DOCK_Rotatable_Bonds:                   5
##########                         Heavy_Atoms:                  24
##########                    Molecular_Weight:             345.469
##########                DOCK_Rotatable_Bonds:                   5
##########                       Formal_Charge:          -0.0200007
##########                     HBond_Acceptors:                   7
##########                        HBond_Donors:                   2
##########                         Heavy_Atoms:                  24
##########                          Grid_Score:          -28.062927
##########                     Grid_vdw_energy:          -27.853949
##########                      Grid_es_energy:           -0.208979
##########           Internal_energy_repulsive:           11.213180

@<TRIPOS>MOLECULE
ZINC001067316277
 47 49 1 0 0
SMALL
USER_CHARGES


@<TRIPOS>ATOM
      1 C1        -12.1564   -3.0693   54.4671 C.3     1  ZINC001067316277   -0.1400
      2 S2        -12.1289   -1.8526   53.1274 S.3     1  ZINC001067316277   -0.0400
      3 C3        -11.3077   -0.5219   53.9394 C.ar    1  ZINC001067316277    0.1800
      4 C4        -11.0055    0.6530   53.2465 C.ar    1  ZINC001067316277   -0.2400
      5 C5        -10.3612    1.6697   53.9234 C.ar    1  ZINC001067316277    0.1900
      6 N6        -10.0504    1.5031   55.2008 N.ar    1  ZINC001067316277   -0.5600
      7 C7        -10.3492    0.3778   55.8336 C.ar    1  ZINC001067316277    0.5100
      8 N8        -10.0076    0.2430   57.1680 N.3     1  ZINC001067316277   -0.4600
      9 C9        -10.0895    1.5328   57.8651 C.3     1  ZINC001067316277    0.0700
     10 C10        -9.5677    1.3754   59.2951 C.3     1  ZINC001067316277   -0.1300
     11 C11       -10.4071    0.3244   60.0267 C.3     1  ZINC001067316277    0.1600
     12 H12       -11.4417    0.6621   60.0869 H       1  ZINC001067316277    0.0900
     13 N13        -9.8767    0.1282   61.3782 N.am    1  ZINC001067316277   -0.7200
     14 C14       -10.2847    0.9263   62.3847 C.2     1  ZINC001067316277    0.5900
     15 O15       -11.0927    1.8108   62.1706 O.2     1  ZINC001067316277   -0.5300
     16 C16        -9.7550    0.7288   63.7381 C.2     1  ZINC001067316277   -0.0600
     17 C17        -8.7385   -0.1303   64.0981 C.2     1  ZINC001067316277   -0.1000
     18 C18        -8.5589    0.0013   65.4785 C.2     1  ZINC001067316277   -0.2100
     19 C19        -9.4491    0.9181   65.9278 C.2     1  ZINC001067316277    0.0300
     20 N20       -10.1781    1.3718   64.8792 N.pl3   1  ZINC001067316277   -0.5400
     21 C21       -10.3440   -0.9961   59.2541 C.3     1  ZINC001067316277   -0.0700
     22 C22        -8.8990   -1.4975   59.2168 C.3     1  ZINC001067316277   -0.1400
     23 C23       -11.2277   -2.0357   59.9464 C.3     1  ZINC001067316277   -0.1400
     24 C24       -10.8434   -0.7698   57.8253 C.3     1  ZINC001067316277    0.0800
     25 N25       -10.9713   -0.6188   55.2226 N.ar    1  ZINC001067316277   -0.5400
     26 H26       -11.1350   -3.2984   54.7709 H       1  ZINC001067316277    0.0900
     27 H27       -12.7054   -2.6623   55.3164 H       1  ZINC001067316277    0.0900
     28 H28       -12.6455   -3.9799   54.1211 H       1  ZINC001067316277    0.1000
     29 H29       -11.2694    0.7636   52.2051 H       1  ZINC001067316277    0.1500
     30 H30       -10.1128    2.5907   53.4171 H       1  ZINC001067316277    0.1700
     31 H31        -9.4849    2.2701   57.3370 H       1  ZINC001067316277    0.1000
     32 H32       -11.1270    1.8660   57.8917 H       1  ZINC001067316277    0.0500
     33 H33        -8.5260    1.0555   59.2691 H       1  ZINC001067316277    0.0800
     34 H34        -9.6432    2.3293   59.8171 H       1  ZINC001067316277    0.0800
     35 H35        -9.2317   -0.5760   61.5486 H       1  ZINC001067316277    0.3900
     36 H36        -8.1854   -0.7822   63.4382 H       1  ZINC001067316277    0.1500
     37 H37        -7.8386   -0.5334   66.0799 H       1  ZINC001067316277    0.1500
     38 H38        -9.5576    1.2380   66.9537 H       1  ZINC001067316277    0.1700
     39 H39       -10.8844    2.0351   64.9261 H       1  ZINC001067316277    0.4100
     40 H40        -8.5426   -1.6550   60.2348 H       1  ZINC001067316277    0.0500
     41 H41        -8.8546   -2.4374   58.6668 H       1  ZINC001067316277    0.0600
     42 H42        -8.2701   -0.7571   58.7224 H       1  ZINC001067316277    0.0700
     43 H43       -12.2572   -1.6785   59.9714 H       1  ZINC001067316277    0.0600
     44 H44       -11.1823   -2.9754   59.3960 H       1  ZINC001067316277    0.0600
     45 H45       -10.8730   -2.1936   60.9649 H       1  ZINC001067316277    0.0600
     46 H46       -11.8773   -0.4259   57.8521 H       1  ZINC001067316277    0.0600
     47 H47       -10.7862   -1.7051   57.2683 H       1  ZINC001067316277    0.1000
@<TRIPOS>BOND
     1     1     2    1
     2     1    26    1
     3     1    27    1
     4     1    28    1
     5     2     3    1
     6     3    25   ar
     7     3     4   ar
     8     4     5   ar
     9     4    29    1
    10     5     6   ar
    11     5    30    1
    12     6     7   ar
    13     7     8    1
    14     7    25   ar
    15     8    24    1
    16     8     9    1
    17     9    10    1
    18     9    31    1
    19     9    32    1
    20    10    11    1
    21    10    33    1
    22    10    34    1
    23    11    12    1
    24    11    13    1
    25    11    21    1
    26    13    14   am
    27    13    35    1
    28    14    15    2
    29    14    16    1
    30    16    20    1
    31    16    17    2
    32    17    18    1
    33    17    36    1
    34    18    19    2
    35    18    37    1
    36    19    20    1
    37    19    38    1
    38    20    39    1
    39    21    22    1
    40    21    23    1
    41    21    24    1
    42    22    40    1
    43    22    41    1
    44    22    42    1
    45    23    43    1
    46    23    44    1
    47    23    45    1
    48    24    46    1
    49    24    47    1
@<TRIPOS>SUBSTRUCTURE
     1 ZINC001067316277        1 TEMP              0 ****  ****    0 ROOT


##########                                Name:    ZINC000573150059
##########                DOCK_Rotatable_Bonds:                   7
##########                         Heavy_Atoms:                  23
##########                    Molecular_Weight:             378.269
##########                DOCK_Rotatable_Bonds:                   7
##########                       Formal_Charge:        -2.98023e-07
##########                     HBond_Acceptors:                   5
##########                        HBond_Donors:                   2
##########                         Heavy_Atoms:                  23
##########                          Grid_Score:          -28.056856
##########                     Grid_vdw_energy:          -27.073786
##########                      Grid_es_energy:           -0.983070
##########           Internal_energy_repulsive:           17.126604

@<TRIPOS>MOLECULE
ZINC000573150059
 43 44 1 0 0
SMALL
USER_CHARGES


@<TRIPOS>ATOM
      1 C1         -3.3464    3.4183   49.6797 C.3     1  ZINC000573150059    0.0300
      2 O2         -3.5433    2.0121   49.8396 O.3     1  ZINC000573150059   -0.3600
      3 C3         -4.1235    1.6451   51.0928 C.3     1  ZINC000573150059    0.0700
      4 H4         -3.8955    0.6009   51.3069 H       1  ZINC000573150059    0.0900
      5 C5         -3.5477    2.5301   52.2001 C.3     1  ZINC000573150059   -0.1700
      6 C6         -5.6177    1.8298   51.0280 C.2     1  ZINC000573150059    0.5100
      7 O7         -6.1568    2.0422   49.9625 O.2     1  ZINC000573150059   -0.4900
      8 N8         -6.3549    1.7591   52.1539 N.am    1  ZINC000573150059   -0.6700
      9 C9         -7.7423    1.9307   52.0937 C.ar    1  ZINC000573150059    0.1900
     10 C10        -8.2778    3.1935   51.8743 C.ar    1  ZINC000573150059   -0.2000
     11 C11        -9.6477    3.3641   51.8146 C.ar    1  ZINC000573150059   -0.0500
     12 C12       -10.4892    2.2801   51.9722 C.ar    1  ZINC000573150059   -0.2200
     13 C13        -9.9599    1.0138   52.1916 C.ar    1  ZINC000573150059    0.2400
     14 N14       -10.8112   -0.0819   52.3505 N.pl3   1  ZINC000573150059   -0.7300
     15 C15       -12.1738    0.1156   52.8511 C.3     1  ZINC000573150059    0.2000
     16 H16       -12.2413    1.0830   53.3487 H       1  ZINC000573150059    0.1000
     17 C17       -13.1582    0.0744   51.6805 C.3     1  ZINC000573150059   -0.1700
     18 C18       -12.5125   -0.9781   53.8309 C.ar    1  ZINC000573150059    0.1400
     19 C19       -12.9790   -0.6472   55.0890 C.ar    1  ZINC000573150059   -0.1600
     20 C20       -13.2884   -1.6607   55.9832 C.ar    1  ZINC000573150059   -0.0400
     21 C21       -13.1157   -2.9755   55.5762 C.ar    1  ZINC000573150059   -0.1500
     22 Br22      -13.5205   -4.4023   56.7495 Br      1  ZINC000573150059   -0.0300
     23 C23       -12.6442   -3.2295   54.3009 C.ar    1  ZINC000573150059    0.1400
     24 N24       -12.3652   -2.2396   53.4759 N.ar    1  ZINC000573150059   -0.4700
     25 C25        -8.5845    0.8387   52.2473 C.ar    1  ZINC000573150059   -0.1900
     26 H26        -4.3061    3.9301   49.7521 H       1  ZINC000573150059    0.0500
     27 H27        -2.6803    3.7831   50.4616 H       1  ZINC000573150059    0.0400
     28 H28        -2.9028    3.6146   48.7037 H       1  ZINC000573150059    0.0900
     29 H29        -3.7757    3.5743   51.9860 H       1  ZINC000573150059    0.0700
     30 H30        -3.9903    2.2502   53.1561 H       1  ZINC000573150059    0.0700
     31 H31        -2.4670    2.3965   52.2471 H       1  ZINC000573150059    0.0700
     32 H32        -5.9238    1.5892   53.0061 H       1  ZINC000573150059    0.4100
     33 H33        -7.6225    4.0432   51.7506 H       1  ZINC000573150059    0.1200
     34 H34       -10.0614    4.3471   51.6445 H       1  ZINC000573150059    0.1300
     35 H35       -11.5595    2.4167   51.9254 H       1  ZINC000573150059    0.1200
     36 H36       -10.5003   -0.9738   52.1295 H       1  ZINC000573150059    0.4100
     37 H37       -13.0907   -0.8930   51.1829 H       1  ZINC000573150059    0.0600
     38 H38       -14.1719    0.2214   52.0530 H       1  ZINC000573150059    0.0700
     39 H39       -12.9132    0.8655   50.9717 H       1  ZINC000573150059    0.0700
     40 H40       -13.1009    0.3878   55.3721 H       1  ZINC000573150059    0.1500
     41 H41       -13.6545   -1.4319   56.9731 H       1  ZINC000573150059    0.1500
     42 H42       -12.5065   -4.2502   53.9760 H       1  ZINC000573150059    0.1700
     43 H43        -8.1705   -0.1443   52.4173 H       1  ZINC000573150059    0.1400
@<TRIPOS>BOND
     1     1     2    1
     2     1    26    1
     3     1    27    1
     4     1    28    1
     5     2     3    1
     6     3     4    1
     7     3     5    1
     8     3     6    1
     9     5    29    1
    10     5    30    1
    11     5    31    1
    12     6     7    2
    13     6     8   am
    14     8     9    1
    15     8    32    1
    16     9    25   ar
    17     9    10   ar
    18    10    11   ar
    19    10    33    1
    20    11    12   ar
    21    11    34    1
    22    12    13   ar
    23    12    35    1
    24    13    14    1
    25    13    25   ar
    26    14    15    1
    27    14    36    1
    28    15    16    1
    29    15    17    1
    30    15    18    1
    31    17    37    1
    32    17    38    1
    33    17    39    1
    34    18    24   ar
    35    18    19   ar
    36    19    20   ar
    37    19    40    1
    38    20    21   ar
    39    20    41    1
    40    21    22    1
    41    21    23   ar
    42    23    24   ar
    43    23    42    1
    44    25    43    1
@<TRIPOS>SUBSTRUCTURE
     1 ZINC000573150059        1 TEMP              0 ****  ****    0 ROOT


##########                                Name:    ZINC000482139334
##########                DOCK_Rotatable_Bonds:                   4
##########                         Heavy_Atoms:                  26
##########                    Molecular_Weight:             348.376
##########                DOCK_Rotatable_Bonds:                   4
##########                       Formal_Charge:           0.0300002
##########                     HBond_Acceptors:                   5
##########                        HBond_Donors:                   1
##########                         Heavy_Atoms:                  26
##########                          Grid_Score:          -28.003912
##########                     Grid_vdw_energy:          -27.637846
##########                      Grid_es_energy:           -0.366065
##########           Internal_energy_repulsive:           12.700530

@<TRIPOS>MOLECULE
ZINC000482139334
 43 47 1 0 0
SMALL
USER_CHARGES


@<TRIPOS>ATOM
      1 O1         -9.0609   -1.8041   59.4974 O.2     1  ZINC000482139334   -0.4800
      2 C2        -10.2688   -1.6968   59.5059 C.2     1  ZINC000482139334    0.5500
      3 N3        -10.8864   -1.1175   60.5544 N.am    1  ZINC000482139334   -0.6100
      4 C4        -10.1415   -0.6496   61.6256 C.2     1  ZINC000482139334    0.4300
      5 N5        -10.5783    0.1514   62.5633 N.2     1  ZINC000482139334   -0.4800
      6 C6         -9.5641    0.3856   63.4368 C.2     1  ZINC000482139334    0.0400
      7 C7         -9.6274    1.2396   64.6484 C.ar    1  ZINC000482139334   -0.0500
      8 C8         -8.5016    1.3951   65.4538 C.ar    1  ZINC000482139334   -0.0800
      9 C9         -8.5658    2.1913   66.5798 C.ar    1  ZINC000482139334   -0.1300
     10 C10        -9.7448    2.8342   66.9103 C.ar    1  ZINC000482139334   -0.0800
     11 C11       -10.8671    2.6844   66.1158 C.ar    1  ZINC000482139334   -0.1600
     12 C12       -10.8136    1.8949   64.9825 C.ar    1  ZINC000482139334    0.1300
     13 F13       -11.9099    1.7488   64.2066 F       1  ZINC000482139334   -0.1200
     14 C14        -8.4851   -0.3045   62.9976 C.2     1  ZINC000482139334   -0.0600
     15 O15        -8.8571   -0.9495   61.8723 O.3     1  ZINC000482139334   -0.1800
     16 C16       -11.0788   -2.2055   58.3413 C.3     1  ZINC000482139334   -0.1800
     17 H17       -10.9370   -3.2576   58.0938 H       1  ZINC000482139334    0.1400
     18 C18       -12.4762   -1.6134   58.1393 C.3     1  ZINC000482139334   -0.1200
     19 C19       -11.3407   -1.2409   57.1912 C.3     1  ZINC000482139334   -0.0500
     20 C20       -10.7410    0.1751   57.1867 C.3     1  ZINC000482139334   -0.0700
     21 C21       -11.0518    0.6570   55.7522 C.3     1  ZINC000482139334   -0.0900
     22 C22       -11.1593   -0.6055   54.9230 C.ar    1  ZINC000482139334   -0.0800
     23 C23       -11.1140   -0.7837   53.5510 C.ar    1  ZINC000482139334   -0.1100
     24 C24       -11.2371   -2.0482   53.0088 C.ar    1  ZINC000482139334   -0.1100
     25 C25       -11.4064   -3.1404   53.8385 C.ar    1  ZINC000482139334   -0.1200
     26 C26       -11.4518   -2.9655   55.2079 C.ar    1  ZINC000482139334   -0.1000
     27 C27       -11.3282   -1.6992   55.7544 C.ar    1  ZINC000482139334   -0.0700
     28 H28       -11.8523   -1.0281   60.5595 H       1  ZINC000482139334    0.4400
     29 H29        -7.5800    0.8934   65.1980 H       1  ZINC000482139334    0.1300
     30 H30        -7.6930    2.3120   67.2045 H       1  ZINC000482139334    0.1400
     31 H31        -9.7895    3.4556   67.7926 H       1  ZINC000482139334    0.1400
     32 H32       -11.7853    3.1883   66.3790 H       1  ZINC000482139334    0.1400
     33 H33        -7.5108   -0.3358   63.4625 H       1  ZINC000482139334    0.2200
     34 H34       -13.2535   -2.2756   57.7580 H       1  ZINC000482139334    0.1200
     35 H35       -12.8096   -0.8558   58.8486 H       1  ZINC000482139334    0.1100
     36 H36       -11.2347    0.8080   57.9241 H       1  ZINC000482139334    0.0800
     37 H37        -9.6654    0.1416   57.3603 H       1  ZINC000482139334    0.0900
     38 H38       -11.9947    1.2034   55.7330 H       1  ZINC000482139334    0.0800
     39 H39       -10.2422    1.2853   55.3809 H       1  ZINC000482139334    0.0800
     40 H40       -10.9821    0.0695   52.9019 H       1  ZINC000482139334    0.1200
     41 H41       -11.2014   -2.1830   51.9378 H       1  ZINC000482139334    0.1300
     42 H42       -11.5035   -4.1298   53.4165 H       1  ZINC000482139334    0.1300
     43 H43       -11.5846   -3.8199   55.8551 H       1  ZINC000482139334    0.1200
@<TRIPOS>BOND
     1     1     2    2
     2     2     3   am
     3     2    16    1
     4     3     4    1
     5     3    28    1
     6     4    15    1
     7     4     5    2
     8     5     6    1
     9     6     7    1
    10     6    14    2
    11     7    12   ar
    12     7     8   ar
    13     8     9   ar
    14     8    29    1
    15     9    10   ar
    16     9    30    1
    17    10    11   ar
    18    10    31    1
    19    11    12   ar
    20    11    32    1
    21    12    13    1
    22    14    15    1
    23    14    33    1
    24    16    17    1
    25    16    19    1
    26    16    18    1
    27    18    19    1
    28    18    34    1
    29    18    35    1
    30    19    27    1
    31    19    20    1
    32    20    21    1
    33    20    36    1
    34    20    37    1
    35    21    22    1
    36    21    38    1
    37    21    39    1
    38    22    27   ar
    39    22    23   ar
    40    23    24   ar
    41    23    40    1
    42    24    25   ar
    43    24    41    1
    44    25    26   ar
    45    25    42    1
    46    26    27   ar
    47    26    43    1
@<TRIPOS>SUBSTRUCTURE
     1 ZINC000482139334        1 TEMP              0 ****  ****    0 ROOT


##########                                Name:    ZINC000915315870
##########                DOCK_Rotatable_Bonds:                   4
##########                         Heavy_Atoms:                  24
##########                    Molecular_Weight:             357.381
##########                DOCK_Rotatable_Bonds:                   4
##########                       Formal_Charge:           0.0300002
##########                     HBond_Acceptors:                   9
##########                        HBond_Donors:                   1
##########                         Heavy_Atoms:                  24
##########                          Grid_Score:          -27.987030
##########                     Grid_vdw_energy:          -28.163206
##########                      Grid_es_energy:            0.176176
##########           Internal_energy_repulsive:           36.749737

@<TRIPOS>MOLECULE
ZINC000915315870
 41 43 1 0 0
SMALL
USER_CHARGES


@<TRIPOS>ATOM
      1 C1         -8.9438    0.8805   65.1311 C.3     1  ZINC000915315870    0.0300
      2 O2         -9.6906    1.5566   64.1176 O.3     1  ZINC000915315870   -0.3200
      3 C3         -9.7437    0.9671   62.8930 C.ar    1  ZINC000915315870    0.0800
      4 C4         -9.0956   -0.2410   62.6738 C.ar    1  ZINC000915315870    0.0900
      5 F5         -8.4116   -0.8333   63.6771 F       1  ZINC000915315870   -0.1100
      6 C6         -9.1515   -0.8382   61.4268 C.ar    1  ZINC000915315870   -0.0500
      7 C7         -9.8512   -0.2328   60.3995 C.ar    1  ZINC000915315870   -0.6300
      8 S8         -9.9195   -0.9961   58.8129 S.o2    1  ZINC000915315870    2.7000
      9 O9         -9.4873   -0.0173   57.8778 O.2     1  ZINC000915315870   -0.9400
     10 O10        -9.2978   -2.2664   58.9518 O.2     1  ZINC000915315870   -0.9400
     11 N11       -11.5145   -1.2902   58.4787 N.am    1  ZINC000915315870   -1.1100
     12 C12       -12.3003   -2.1561   59.3612 C.3     1  ZINC000915315870    0.2400
     13 H13       -11.6376   -2.8420   59.8887 H       1  ZINC000915315870    0.0900
     14 C14       -13.0714   -1.2999   60.3738 C.3     1  ZINC000915315870   -0.1400
     15 C15       -14.0728   -2.1738   61.1321 C.3     1  ZINC000915315870   -0.1100
     16 C16       -15.2282   -2.5644   60.2021 C.3     1  ZINC000915315870   -0.0400
     17 C17       -14.6406   -3.1231   58.9290 C.2     1  ZINC000915315870    0.0900
     18 N18       -15.2310   -3.8329   58.0120 N.2     1  ZINC000915315870   -0.2900
     19 N19       -14.2892   -4.1282   57.0146 N.pl3   1  ZINC000915315870   -0.3800
     20 C20       -14.5374   -4.9081   55.7995 C.3     1  ZINC000915315870    0.1000
     21 C21       -13.1126   -3.5659   57.3717 C.2     1  ZINC000915315870    0.0800
     22 C22       -13.3004   -2.9395   58.5471 C.2     1  ZINC000915315870   -0.2500
     23 C23       -10.4980    0.9700   60.6147 C.ar    1  ZINC000915315870   -0.0500
     24 C24       -10.4507    1.5694   61.8610 C.ar    1  ZINC000915315870    0.1000
     25 F25       -11.0829    2.7448   62.0706 F       1  ZINC000915315870   -0.1100
     26 H26        -8.9826    1.4562   66.0559 H       1  ZINC000915315870    0.1100
     27 H27        -9.3723   -0.1075   65.3000 H       1  ZINC000915315870    0.0600
     28 H28        -7.9072    0.7770   64.8107 H       1  ZINC000915315870    0.0500
     29 H29        -8.6476   -1.7780   61.2557 H       1  ZINC000915315870    0.1700
     30 H30       -11.9285   -0.8890   57.6986 H       1  ZINC000915315870    0.4200
     31 H31       -12.3707   -0.8549   61.0803 H       1  ZINC000915315870    0.0900
     32 H32       -13.6059   -0.5091   59.8474 H       1  ZINC000915315870    0.0800
     33 H33       -13.5722   -3.0749   61.4864 H       1  ZINC000915315870    0.0700
     34 H34       -14.4653   -1.6193   61.9845 H       1  ZINC000915315870    0.0800
     35 H35       -15.8484   -3.3203   60.6837 H       1  ZINC000915315870    0.0800
     36 H36       -15.8302   -1.6846   59.9742 H       1  ZINC000915315870    0.0900
     37 H37       -14.8583   -4.2414   54.9992 H       1  ZINC000915315870    0.0800
     38 H38       -13.6214   -5.4184   55.5020 H       1  ZINC000915315870    0.0900
     39 H39       -15.3172   -5.6445   55.9935 H       1  ZINC000915315870    0.0900
     40 H40       -12.1888   -3.6115   56.8141 H       1  ZINC000915315870    0.1700
     41 H41       -11.0441    1.4403   59.8104 H       1  ZINC000915315870    0.1700
@<TRIPOS>BOND
     1     1     2    1
     2     1    26    1
     3     1    27    1
     4     1    28    1
     5     2     3    1
     6     3    24   ar
     7     3     4   ar
     8     4     5    1
     9     4     6   ar
    10     6     7   ar
    11     6    29    1
    12     7     8    1
    13     7    23   ar
    14     8     9    2
    15     8    10    2
    16     8    11   am
    17    11    12    1
    18    11    30    1
    19    12    13    1
    20    12    22    1
    21    12    14    1
    22    14    15    1
    23    14    31    1
    24    14    32    1
    25    15    16    1
    26    15    33    1
    27    15    34    1
    28    16    17    1
    29    16    35    1
    30    16    36    1
    31    17    22    1
    32    17    18    2
    33    18    19    1
    34    19    20    1
    35    19    21    1
    36    20    37    1
    37    20    38    1
    38    20    39    1
    39    21    22    2
    40    21    40    1
    41    23    24   ar
    42    23    41    1
    43    24    25    1
@<TRIPOS>SUBSTRUCTURE
     1 ZINC000915315870        1 TEMP              0 ****  ****    0 ROOT


##########                                Name:    ZINC001110536231
##########                DOCK_Rotatable_Bonds:                   8
##########                         Heavy_Atoms:                  24
##########                    Molecular_Weight:             329.442
##########                DOCK_Rotatable_Bonds:                   8
##########                       Formal_Charge:          -0.0400001
##########                     HBond_Acceptors:                   5
##########                        HBond_Donors:                   1
##########                         Heavy_Atoms:                  24
##########                          Grid_Score:          -27.976530
##########                     Grid_vdw_energy:          -27.893353
##########                      Grid_es_energy:           -0.083177
##########           Internal_energy_repulsive:           32.956657

@<TRIPOS>MOLECULE
ZINC001110536231
 51 53 1 0 0
SMALL
USER_CHARGES


@<TRIPOS>ATOM
      1 C1        -15.4804    0.4135   46.3224 C.3     1  ZINC001110536231   -0.1300
      2 C2        -14.9013    1.2876   47.4367 C.3     1  ZINC001110536231   -0.1000
      3 C3        -14.7604    0.4698   48.6947 C.2     1  ZINC001110536231   -0.0200
      4 C4        -14.8213   -1.0345   48.6262 C.3     1  ZINC001110536231   -0.1300
      5 C5        -14.5823    1.0756   49.8652 C.2     1  ZINC001110536231   -0.2400
      6 C6        -14.4448    0.2772   51.0930 C.2     1  ZINC001110536231    0.5400
      7 O7        -15.4319   -0.0238   51.7364 O.2     1  ZINC001110536231   -0.5300
      8 N8        -13.2247   -0.1207   51.5049 N.am    1  ZINC001110536231   -0.7300
      9 C9        -13.0880   -0.9173   52.7267 C.3     1  ZINC001110536231    0.1100
     10 H10       -13.9891   -1.5046   52.9035 H       1  ZINC001110536231    0.1000
     11 C11       -12.7846   -0.0056   53.9409 C.3     1  ZINC001110536231   -0.1600
     12 C12       -11.3891   -0.4997   54.4278 C.3     1  ZINC001110536231    0.0500
     13 H13       -10.8227    0.2099   55.0310 H       1  ZINC001110536231    0.1200
     14 C14       -11.6595   -1.8830   55.0930 C.3     1  ZINC001110536231   -0.1200
     15 C15       -11.9716   -2.8077   53.8910 C.3     1  ZINC001110536231   -0.1100
     16 C16       -11.8375   -1.8436   52.6406 C.3     1  ZINC001110536231    0.0400
     17 H17       -11.6628   -2.3355   51.6837 H       1  ZINC001110536231    0.1200
     18 N18       -10.7556   -0.9060   53.1228 N.3     1  ZINC001110536231   -0.4900
     19 C19       -10.6077    0.2388   52.2140 C.3     1  ZINC001110536231    0.0600
     20 C20        -9.1448    0.5560   52.0398 C.ar    1  ZINC001110536231    0.0100
     21 C21        -8.1909   -0.4514   52.0754 C.ar    1  ZINC001110536231   -0.2100
     22 C22        -6.8588   -0.1263   51.9120 C.ar    1  ZINC001110536231    0.1400
     23 N23        -6.4862    1.1252   51.7235 N.ar    1  ZINC001110536231   -0.5400
     24 C24        -7.3656    2.1125   51.6836 C.ar    1  ZINC001110536231    0.3200
     25 O25        -6.9383    3.3853   51.4870 O.3     1  ZINC001110536231   -0.3100
     26 C26        -6.1913    3.6422   50.2962 C.3     1  ZINC001110536231    0.0400
     27 C27        -8.7224    1.8583   51.8352 C.ar    1  ZINC001110536231   -0.1700
     28 H28       -15.5823    1.0050   45.4126 H       1  ZINC001110536231    0.0500
     29 H29       -14.8126   -0.4276   46.1362 H       1  ZINC001110536231    0.0700
     30 H30       -16.4589    0.0404   46.6247 H       1  ZINC001110536231    0.0400
     31 H31       -13.9227    1.6606   47.1344 H       1  ZINC001110536231    0.0900
     32 H32       -15.5692    2.1286   47.6229 H       1  ZINC001110536231    0.0600
     33 H33       -13.8180   -1.4321   48.4730 H       1  ZINC001110536231    0.0800
     34 H34       -15.2281   -1.4244   49.5593 H       1  ZINC001110536231    0.0700
     35 H35       -15.4617   -1.3348   47.7970 H       1  ZINC001110536231    0.0700
     36 H36       -14.5387    2.1536   49.9142 H       1  ZINC001110536231    0.1200
     37 H37       -12.4373    0.1203   50.9924 H       1  ZINC001110536231    0.4000
     38 H38       -12.7361    1.0391   53.6336 H       1  ZINC001110536231    0.0700
     39 H39       -13.5339   -0.1429   54.7205 H       1  ZINC001110536231    0.0800
     40 H40       -10.7751   -2.2319   55.6261 H       1  ZINC001110536231    0.0700
     41 H41       -12.5157   -1.8248   55.7649 H       1  ZINC001110536231    0.0700
     42 H42       -11.2420   -3.6150   53.8283 H       1  ZINC001110536231    0.0800
     43 H43       -12.9826   -3.2079   53.9672 H       1  ZINC001110536231    0.0700
     44 H44       -11.0440   -0.0071   51.2459 H       1  ZINC001110536231    0.0900
     45 H45       -11.1197    1.1046   52.6339 H       1  ZINC001110536231    0.0700
     46 H46        -8.4872   -1.4784   52.2295 H       1  ZINC001110536231    0.1300
     47 H47        -6.1125   -0.9065   51.9390 H       1  ZINC001110536231    0.1600
     48 H48        -5.9119    4.6952   50.2627 H       1  ZINC001110536231    0.1000
     49 H49        -5.2914    3.0272   50.2920 H       1  ZINC001110536231    0.0600
     50 H50        -6.8008    3.4001   49.4256 H       1  ZINC001110536231    0.0600
     51 H51        -9.4377    2.6668   51.8017 H       1  ZINC001110536231    0.1400
@<TRIPOS>BOND
     1     1     2    1
     2     1    28    1
     3     1    29    1
     4     1    30    1
     5     2     3    1
     6     2    31    1
     7     2    32    1
     8     3     4    1
     9     3     5    2
    10     4    33    1
    11     4    34    1
    12     4    35    1
    13     5     6    1
    14     5    36    1
    15     6     7    2
    16     6     8   am
    17     8     9    1
    18     8    37    1
    19     9    10    1
    20     9    16    1
    21     9    11    1
    22    11    12    1
    23    11    38    1
    24    11    39    1
    25    12    13    1
    26    12    18    1
    27    12    14    1
    28    14    15    1
    29    14    40    1
    30    14    41    1
    31    15    16    1
    32    15    42    1
    33    15    43    1
    34    16    17    1
    35    16    18    1
    36    18    19    1
    37    19    20    1
    38    19    44    1
    39    19    45    1
    40    20    27   ar
    41    20    21   ar
    42    21    22   ar
    43    21    46    1
    44    22    23   ar
    45    22    47    1
    46    23    24   ar
    47    24    25    1
    48    24    27   ar
    49    25    26    1
    50    26    48    1
    51    26    49    1
    52    26    50    1
    53    27    51    1
@<TRIPOS>SUBSTRUCTURE
     1 ZINC001110536231        1 TEMP              0 ****  ****    0 ROOT


##########                                Name:    ZINC000426037318
##########                DOCK_Rotatable_Bonds:                   7
##########                         Heavy_Atoms:                  28
##########                    Molecular_Weight:             421.904
##########                DOCK_Rotatable_Bonds:                   7
##########                       Formal_Charge:         -0.00999981
##########                     HBond_Acceptors:                   9
##########                        HBond_Donors:                   1
##########                         Heavy_Atoms:                  28
##########                          Grid_Score:          -27.972963
##########                     Grid_vdw_energy:          -27.178553
##########                      Grid_es_energy:           -0.794411
##########           Internal_energy_repulsive:           18.578722

@<TRIPOS>MOLECULE
ZINC000426037318
 48 50 1 0 0
SMALL
USER_CHARGES


@<TRIPOS>ATOM
      1 C1          0.7144    1.6023   51.6198 C.3     1  ZINC000426037318    0.0300
      2 O2          0.5144    2.8209   50.9010 O.3     1  ZINC000426037318   -0.3800
      3 C3         -0.0027    3.8880   51.6984 C.3     1  ZINC000426037318    0.1300
      4 C4         -1.4798    3.6829   51.9154 C.ar    1  ZINC000426037318    0.3900
      5 N5         -1.9455    3.6514   53.1511 N.ar    1  ZINC000426037318   -0.5700
      6 C6         -3.2328    3.4747   53.3964 C.ar    1  ZINC000426037318    0.4400
      7 O7         -3.6920    3.4457   54.6692 O.3     1  ZINC000426037318   -0.2800
      8 C8         -2.7546    3.7495   55.7041 C.3     1  ZINC000426037318    0.0300
      9 C9         -4.1268    3.3163   52.3033 C.ar    1  ZINC000426037318   -0.2000
     10 C10        -5.5124    3.1186   52.2958 C.2     1  ZINC000426037318    0.0500
     11 C11        -6.3203    3.0396   53.5655 C.3     1  ZINC000426037318   -0.1200
     12 C12        -6.0717    3.0046   51.0849 C.2     1  ZINC000426037318   -0.2700
     13 C13        -7.5045    2.7938   50.8436 C.2     1  ZINC000426037318    0.6000
     14 O14        -7.9293    1.6709   50.6449 O.2     1  ZINC000426037318   -0.5000
     15 N15        -8.3493    3.8439   50.8422 N.am    1  ZINC000426037318   -0.6600
     16 C16        -9.7163    3.6428   50.6119 C.ar    1  ZINC000426037318    0.1200
     17 C17       -10.4740    2.9162   51.5199 C.ar    1  ZINC000426037318   -0.0700
     18 C18       -11.8221    2.7187   51.2925 C.ar    1  ZINC000426037318   -0.0900
     19 C19       -12.6446    1.9302   52.2788 C.3     1  ZINC000426037318   -0.1100
     20 C20       -12.4192    3.2460   50.1571 C.ar    1  ZINC000426037318    0.1300
     21 O21       -13.7464    3.0512   49.9346 O.3     1  ZINC000426037318   -0.3100
     22 C22       -14.3252    3.7365   48.8223 C.3     1  ZINC000426037318    0.0200
     23 C23       -11.6633    3.9725   49.2484 C.ar    1  ZINC000426037318   -0.1800
     24 C24       -10.3160    4.1756   49.4768 C.ar    1  ZINC000426037318   -0.0300
     25 Cl25       -9.3700    5.0852   48.3403 Cl      1  ZINC000426037318   -0.0600
     26 S26        -4.8569    3.1423   49.8254 S.3     1  ZINC000426037318    0.2200
     27 C27        -3.5784    3.3581   51.0131 C.ar    1  ZINC000426037318    0.1300
     28 N28        -2.2622    3.5469   50.8695 N.ar    1  ZINC000426037318   -0.5000
     29 H29         1.1083    0.8426   50.9446 H       1  ZINC000426037318    0.0900
     30 H30         1.4234    1.7707   52.4304 H       1  ZINC000426037318    0.0500
     31 H31        -0.2359    1.2638   52.0329 H       1  ZINC000426037318    0.0500
     32 H32         0.5075    3.9022   52.6615 H       1  ZINC000426037318    0.0900
     33 H33         0.1610    4.8364   51.1865 H       1  ZINC000426037318    0.0800
     34 H34        -2.3642    4.7564   55.5566 H       1  ZINC000426037318    0.0700
     35 H35        -3.2510    3.6907   56.6727 H       1  ZINC000426037318    0.1100
     36 H36        -1.9336    3.0332   55.6726 H       1  ZINC000426037318    0.0700
     37 H37        -6.6601    4.0376   53.8425 H       1  ZINC000426037318    0.0900
     38 H38        -7.1832    2.3928   53.4075 H       1  ZINC000426037318    0.1000
     39 H39        -5.7018    2.6315   54.3649 H       1  ZINC000426037318    0.0800
     40 H40        -8.0107    4.7390   51.0008 H       1  ZINC000426037318    0.4100
     41 H41       -10.0095    2.5051   52.4040 H       1  ZINC000426037318    0.1600
     42 H42       -13.0562    2.6044   53.0298 H       1  ZINC000426037318    0.0700
     43 H43       -13.4587    1.4295   51.7547 H       1  ZINC000426037318    0.0700
     44 H44       -12.0138    1.1861   52.7652 H       1  ZINC000426037318    0.0700
     45 H45       -14.2054    4.8117   48.9557 H       1  ZINC000426037318    0.0600
     46 H46       -13.8258    3.4263   47.9045 H       1  ZINC000426037318    0.0600
     47 H47       -15.3861    3.4943   48.7583 H       1  ZINC000426037318    0.1000
     48 H48       -12.1291    4.3828   48.3645 H       1  ZINC000426037318    0.1500
@<TRIPOS>BOND
     1     1     2    1
     2     1    29    1
     3     1    30    1
     4     1    31    1
     5     2     3    1
     6     3     4    1
     7     3    32    1
     8     3    33    1
     9     4    28   ar
    10     4     5   ar
    11     5     6   ar
    12     6     7    1
    13     6     9   ar
    14     7     8    1
    15     8    34    1
    16     8    35    1
    17     8    36    1
    18     9    27   ar
    19     9    10    1
    20    10    11    1
    21    10    12    2
    22    11    37    1
    23    11    38    1
    24    11    39    1
    25    12    13    1
    26    12    26    1
    27    13    14    2
    28    13    15   am
    29    15    16    1
    30    15    40    1
    31    16    24   ar
    32    16    17   ar
    33    17    18   ar
    34    17    41    1
    35    18    19    1
    36    18    20   ar
    37    19    42    1
    38    19    43    1
    39    19    44    1
    40    20    21    1
    41    20    23   ar
    42    21    22    1
    43    22    45    1
    44    22    46    1
    45    22    47    1
    46    23    24   ar
    47    23    48    1
    48    24    25    1
    49    26    27    1
    50    27    28   ar
@<TRIPOS>SUBSTRUCTURE
     1 ZINC000426037318        1 TEMP              0 ****  ****    0 ROOT


##########                                Name:    ZINC000979274057
##########                DOCK_Rotatable_Bonds:                   6
##########                         Heavy_Atoms:                  24
##########                    Molecular_Weight:              330.39
##########                DOCK_Rotatable_Bonds:                   6
##########                       Formal_Charge:          0.00999946
##########                     HBond_Acceptors:                   8
##########                        HBond_Donors:                   1
##########                         Heavy_Atoms:                  24
##########                          Grid_Score:          -27.922089
##########                     Grid_vdw_energy:          -27.781832
##########                      Grid_es_energy:           -0.140258
##########           Internal_energy_repulsive:            9.794311

@<TRIPOS>MOLECULE
ZINC000979274057
 46 48 1 0 0
SMALL
USER_CHARGES


@<TRIPOS>ATOM
      1 C1         -4.0427    5.5312   52.6213 C.3     1  ZINC000979274057   -0.1400
      2 C2         -4.0686    4.1180   52.0357 C.3     1  ZINC000979274057    0.1000
      3 H3         -3.6139    3.4235   52.7421 H       1  ZINC000979274057    0.0600
      4 N4         -3.3157    4.0966   50.7745 N.3     1  ZINC000979274057   -0.6700
      5 C5         -2.6638    2.7957   50.5726 C.3     1  ZINC000979274057    0.1300
      6 C6         -1.2359    2.8701   51.0489 C.ar    1  ZINC000979274057    0.3200
      7 N7         -0.3438    2.0489   50.5322 N.ar    1  ZINC000979274057   -0.5200
      8 C8          0.9191    2.0851   50.9257 C.ar    1  ZINC000979274057    0.1500
      9 C9          1.2976    3.0021   51.8937 C.ar    1  ZINC000979274057   -0.2300
     10 C10         0.3312    3.8488   52.4132 C.ar    1  ZINC000979274057    0.1500
     11 N11        -0.9113    3.7583   51.9670 N.ar    1  ZINC000979274057   -0.5000
     12 C12        -5.5171    3.7018   51.7720 C.3     1  ZINC000979274057    0.0800
     13 H13        -6.1867    4.5133   52.0567 H       1  ZINC000979274057    0.0700
     14 C14        -5.8486    2.4518   52.5953 C.3     1  ZINC000979274057    0.0800
     15 N15        -7.1751    1.9645   52.1853 N.am    1  ZINC000979274057   -0.6000
     16 C16        -8.1288    1.6966   53.0991 C.2     1  ZINC000979274057    0.6100
     17 O17        -7.8990    1.8566   54.2827 O.2     1  ZINC000979274057   -0.5400
     18 C18        -9.4497    1.2099   52.6646 C.2     1  ZINC000979274057   -0.0600
     19 C19        -9.8347   -0.0948   52.5622 C.2     1  ZINC000979274057    0.0400
     20 N20       -11.1180   -0.0930   52.1310 N.pl3   1  ZINC000979274057   -0.4600
     21 C21       -11.9459   -1.2748   51.8778 C.3     1  ZINC000979274057    0.0700
     22 C22       -11.5006    1.2012   51.9757 C.2     1  ZINC000979274057    0.1900
     23 N23       -10.5074    1.9783   52.2987 N.2     1  ZINC000979274057   -0.4600
     24 C24        -7.4299    1.7786   50.7479 C.3     1  ZINC000979274057    0.0500
     25 C25        -7.0213    3.0614   50.0147 C.3     1  ZINC000979274057    0.0500
     26 O26        -5.6845    3.4095   50.3826 O.3     1  ZINC000979274057   -0.3600
     27 H27        -3.0107    5.8277   52.8091 H       1  ZINC000979274057    0.0600
     28 H28        -4.4973    6.2257   51.9148 H       1  ZINC000979274057    0.0700
     29 H29        -4.6013    5.5472   53.5571 H       1  ZINC000979274057    0.0600
     30 H30        -3.9116    4.3274   49.9936 H       1  ZINC000979274057    0.3500
     31 H31        -3.1960    2.0309   51.1383 H       1  ZINC000979274057    0.1000
     32 H32        -2.6806    2.5414   49.5129 H       1  ZINC000979274057    0.0600
     33 H33         1.6450    1.4091   50.4986 H       1  ZINC000979274057    0.1700
     34 H34         2.3208    3.0551   52.2352 H       1  ZINC000979274057    0.1500
     35 H35         0.5895    4.5756   53.1692 H       1  ZINC000979274057    0.1700
     36 H36        -5.1007    1.6809   52.4095 H       1  ZINC000979274057    0.0700
     37 H37        -5.8616    2.7035   53.6557 H       1  ZINC000979274057    0.1000
     38 H38        -9.2313   -0.9629   52.7826 H       1  ZINC000979274057    0.1900
     39 H39       -12.4784   -1.5475   52.7889 H       1  ZINC000979274057    0.0800
     40 H40       -12.6649   -1.0526   51.0893 H       1  ZINC000979274057    0.0900
     41 H41       -11.3103   -2.1039   51.5666 H       1  ZINC000979274057    0.0900
     42 H42       -12.4730    1.5320   51.6422 H       1  ZINC000979274057    0.2100
     43 H43        -6.8413    0.9399   50.3761 H       1  ZINC000979274057    0.0700
     44 H44        -8.4900    1.5844   50.5851 H       1  ZINC000979274057    0.1500
     45 H45        -7.0716    2.8971   48.9382 H       1  ZINC000979274057    0.1100
     46 H46        -7.6971    3.8703   50.2923 H       1  ZINC000979274057    0.0500
@<TRIPOS>BOND
     1     1     2    1
     2     1    27    1
     3     1    28    1
     4     1    29    1
     5     2     3    1
     6     2     4    1
     7     2    12    1
     8     4     5    1
     9     4    30    1
    10     5     6    1
    11     5    31    1
    12     5    32    1
    13     6    11   ar
    14     6     7   ar
    15     7     8   ar
    16     8     9   ar
    17     8    33    1
    18     9    10   ar
    19     9    34    1
    20    10    11   ar
    21    10    35    1
    22    12    13    1
    23    12    26    1
    24    12    14    1
    25    14    15    1
    26    14    36    1
    27    14    37    1
    28    15    16   am
    29    15    24    1
    30    16    17    2
    31    16    18    1
    32    18    23    1
    33    18    19    2
    34    19    20    1
    35    19    38    1
    36    20    21    1
    37    20    22    1
    38    21    39    1
    39    21    40    1
    40    21    41    1
    41    22    23    2
    42    22    42    1
    43    24    25    1
    44    24    43    1
    45    24    44    1
    46    25    26    1
    47    25    45    1
    48    25    46    1
@<TRIPOS>SUBSTRUCTURE
     1 ZINC000979274057        1 TEMP              0 ****  ****    0 ROOT


##########                                Name:    ZINC000646817380
##########                DOCK_Rotatable_Bonds:                   6
##########                         Heavy_Atoms:                  25
##########                    Molecular_Weight:             347.457
##########                DOCK_Rotatable_Bonds:                   6
##########                       Formal_Charge:           0.0199991
##########                     HBond_Acceptors:                   6
##########                        HBond_Donors:                   1
##########                         Heavy_Atoms:                  25
##########                          Grid_Score:          -27.921761
##########                     Grid_vdw_energy:          -27.225958
##########                      Grid_es_energy:           -0.695804
##########           Internal_energy_repulsive:           50.400276

@<TRIPOS>MOLECULE
ZINC000646817380
 54 56 1 0 0
SMALL
USER_CHARGES


@<TRIPOS>ATOM
      1 C1        -15.7419    2.0165   47.5556 C.3     1  ZINC000646817380   -0.1500
      2 C2        -15.1621    0.6161   47.7648 C.3     1  ZINC000646817380   -0.0100
      3 C3        -14.1696    0.3022   46.6436 C.3     1  ZINC000646817380   -0.1500
      4 C4        -14.4534    0.5592   49.0936 C.2     1  ZINC000646817380   -0.0100
      5 C5        -14.6018   -0.3866   50.0488 C.2     1  ZINC000646817380   -0.2200
      6 C6        -13.7182    0.0274   51.0810 C.2     1  ZINC000646817380    0.2400
      7 N7        -13.4957   -0.6129   52.2988 N.am    1  ZINC000646817380   -0.6100
      8 C8        -12.2725   -1.0966   52.5922 C.2     1  ZINC000646817380    0.5200
      9 O9        -11.3644   -0.9735   51.7967 O.2     1  ZINC000646817380   -0.4900
     10 C10       -12.0345   -1.7844   53.8966 C.2     1  ZINC000646817380    0.5300
     11 O11       -11.9250   -2.9925   53.9344 O.2     1  ZINC000646817380   -0.5100
     12 N12       -11.9414   -1.0636   55.0316 N.am    1  ZINC000646817380   -0.5800
     13 C13       -12.0543    0.3990   55.1293 C.3     1  ZINC000646817380    0.1000
     14 C14       -11.8572    0.7757   56.6128 C.3     1  ZINC000646817380   -0.1300
     15 C15       -11.0821   -0.4426   57.1806 C.3     1  ZINC000646817380   -0.1000
     16 H16       -10.0150   -0.3573   56.9747 H       1  ZINC000646817380    0.1000
     17 C17       -11.3369   -0.6041   58.6805 C.3     1  ZINC000646817380   -0.0700
     18 H18       -12.3343   -0.2426   58.9306 H       1  ZINC000646817380    0.0800
     19 C19       -11.1956   -2.0865   59.0839 C.3     1  ZINC000646817380   -0.1300
     20 C20       -10.5315   -2.0379   60.4824 C.3     1  ZINC000646817380   -0.1300
     21 C21        -9.5292   -0.8652   60.3442 C.3     1  ZINC000646817380   -0.1200
     22 C22       -10.2782    0.1734   59.4819 C.3     1  ZINC000646817380   -0.0700
     23 C23        -9.3018    0.8642   58.5277 C.3     1  ZINC000646817380   -0.1600
     24 C24       -10.9557    1.2099   60.3804 C.3     1  ZINC000646817380   -0.1400
     25 C25       -11.7156   -1.6116   56.3814 C.3     1  ZINC000646817380    0.0900
     26 N26       -13.1552    1.1294   50.6593 N.2     1  ZINC000646817380   -0.3800
     27 O27       -13.5484    1.4334   49.5570 O.3     1  ZINC000646817380    0.1100
     28 H28       -16.2545    2.0576   46.5946 H       1  ZINC000646817380    0.0700
     29 H29       -16.4489    2.2401   48.3544 H       1  ZINC000646817380    0.0600
     30 H30       -14.9351    2.7494   47.5688 H       1  ZINC000646817380    0.0600
     31 H31       -15.9688   -0.1168   47.7516 H       1  ZINC000646817380    0.1100
     32 H32       -13.3628    1.0352   46.6568 H       1  ZINC000646817380    0.0600
     33 H33       -13.7565   -0.6954   46.7926 H       1  ZINC000646817380    0.0600
     34 H34       -14.6822    0.3434   45.6825 H       1  ZINC000646817380    0.0700
     35 H35       -15.2436   -1.2551   50.0309 H       1  ZINC000646817380    0.1900
     36 H36       -14.2213   -0.7102   52.9351 H       1  ZINC000646817380    0.4300
     37 H37       -11.2833    0.8719   54.5211 H       1  ZINC000646817380    0.0800
     38 H38       -13.0413    0.7178   54.7940 H       1  ZINC000646817380    0.0800
     39 H39       -11.2649    1.6862   56.7040 H       1  ZINC000646817380    0.0900
     40 H40       -12.8189    0.8882   57.1133 H       1  ZINC000646817380    0.0800
     41 H41       -12.1753   -2.5608   59.1430 H       1  ZINC000646817380    0.0700
     42 H42       -10.5568   -2.6152   58.3763 H       1  ZINC000646817380    0.0800
     43 H43       -11.2712   -1.8250   61.2541 H       1  ZINC000646817380    0.0700
     44 H44       -10.0082   -2.9704   60.6940 H       1  ZINC000646817380    0.0700
     45 H45        -9.2927   -0.4482   61.3232 H       1  ZINC000646817380    0.0700
     46 H46        -8.6213   -1.1965   59.8402 H       1  ZINC000646817380    0.0700
     47 H47        -8.5803    0.1363   58.1564 H       1  ZINC000646817380    0.0700
     48 H48        -9.8530    1.2897   57.6891 H       1  ZINC000646817380    0.0600
     49 H49        -8.7765    1.6587   59.0578 H       1  ZINC000646817380    0.0500
     50 H50       -10.1990    1.7372   60.9614 H       1  ZINC000646817380    0.0600
     51 H51       -11.5026    1.9231   59.7638 H       1  ZINC000646817380    0.0500
     52 H52       -11.6480    0.7079   61.0561 H       1  ZINC000646817380    0.0600
     53 H53       -12.6588   -1.9146   56.8361 H       1  ZINC000646817380    0.0900
     54 H54       -11.0277   -2.4557   56.3344 H       1  ZINC000646817380    0.1000
@<TRIPOS>BOND
     1     1     2    1
     2     1    28    1
     3     1    29    1
     4     1    30    1
     5     2     3    1
     6     2     4    1
     7     2    31    1
     8     3    32    1
     9     3    33    1
    10     3    34    1
    11     4    27    1
    12     4     5    2
    13     5     6    1
    14     5    35    1
    15     6     7    1
    16     6    26    2
    17     7     8   am
    18     7    36    1
    19     8     9    2
    20     8    10    1
    21    10    11    2
    22    10    12   am
    23    12    25    1
    24    12    13    1
    25    13    14    1
    26    13    37    1
    27    13    38    1
    28    14    15    1
    29    14    39    1
    30    14    40    1
    31    15    16    1
    32    15    17    1
    33    15    25    1
    34    17    18    1
    35    17    22    1
    36    17    19    1
    37    19    20    1
    38    19    41    1
    39    19    42    1
    40    20    21    1
    41    20    43    1
    42    20    44    1
    43    21    22    1
    44    21    45    1
    45    21    46    1
    46    22    23    1
    47    22    24    1
    48    23    47    1
    49    23    48    1
    50    23    49    1
    51    24    50    1
    52    24    51    1
    53    24    52    1
    54    25    53    1
    55    25    54    1
    56    26    27    1
@<TRIPOS>SUBSTRUCTURE
     1 ZINC000646817380        1 TEMP              0 ****  ****    0 ROOT


##########                                Name:    ZINC001345966764
##########                DOCK_Rotatable_Bonds:                  10
##########                         Heavy_Atoms:                  22
##########                    Molecular_Weight:             333.258
##########                DOCK_Rotatable_Bonds:                  10
##########                       Formal_Charge:           0.0099997
##########                     HBond_Acceptors:                  11
##########                        HBond_Donors:                   4
##########                         Heavy_Atoms:                  22
##########                          Grid_Score:          -27.912405
##########                     Grid_vdw_energy:          -24.884407
##########                      Grid_es_energy:           -3.027998
##########           Internal_energy_repulsive:            5.290713

@<TRIPOS>MOLECULE
ZINC001345966764
 38 38 1 0 0
SMALL
USER_CHARGES


@<TRIPOS>ATOM
      1 N1         -3.7318    3.4161   57.1823 N.3     1  ZINC001345966764   -0.8400
      2 C2         -3.6347    2.9057   55.8081 C.3     1  ZINC001345966764    0.0200
      3 C3         -3.4234    4.0745   54.8438 C.3     1  ZINC001345966764    0.2800
      4 F4         -4.5958    4.8340   54.7675 F       1  ZINC001345966764   -0.1900
      5 F5         -2.3764    4.8784   55.3076 F       1  ZINC001345966764   -0.1800
      6 C6         -3.0748    3.5338   53.4557 C.3     1  ZINC001345966764    0.0800
      7 N7         -4.2025    2.7552   52.9376 N.am    1  ZINC001345966764   -0.7000
      8 C8         -4.5328    2.8336   51.6332 C.2     1  ZINC001345966764    0.5100
      9 O9         -3.8971    3.5502   50.8883 O.2     1  ZINC001345966764   -0.5100
     10 C10        -5.6821    2.0380   51.1043 C.2     1  ZINC001345966764    0.5100
     11 O11        -5.9261    2.0410   49.9156 O.2     1  ZINC001345966764   -0.5100
     12 N12        -6.4475    1.3173   51.9476 N.am    1  ZINC001345966764   -0.7000
     13 C13        -7.5730    0.5360   51.4289 C.3     1  ZINC001345966764    0.1200
     14 C14        -8.5139    0.1714   52.5790 C.3     1  ZINC001345966764    0.0600
     15 H15        -7.9411   -0.1313   53.4555 H       1  ZINC001345966764    0.0900
     16 C16        -9.4314    1.3658   52.9224 C.3     1  ZINC001345966764   -0.1400
     17 C17       -10.7872    0.7103   53.2684 C.3     1  ZINC001345966764   -0.1500
     18 C18       -10.5283   -0.8025   53.0932 C.3     1  ZINC001345966764    0.0300
     19 H19       -10.2659   -1.2558   54.0490 H       1  ZINC001345966764    0.1200
     20 C20       -11.7605   -1.4885   52.5001 C.3     1  ZINC001345966764    0.4600
     21 F21       -11.4970   -2.8514   52.3257 F       1  ZINC001345966764   -0.1700
     22 F22       -12.8455   -1.3308   53.3689 F       1  ZINC001345966764   -0.1700
     23 F23       -12.0660   -0.9107   51.2631 F       1  ZINC001345966764   -0.1700
     24 O24        -9.4135   -0.8846   52.1771 O.3     1  ZINC001345966764   -0.3500
     25 H25        -2.8914    3.9086   57.4453 H       1  ZINC001345966764    0.3500
     26 H26        -4.5449    4.0031   57.2933 H       1  ZINC001345966764    0.3600
     27 H27        -2.7926    2.2174   55.7349 H       1  ZINC001345966764    0.1100
     28 H28        -4.5552    2.3827   55.5489 H       1  ZINC001345966764    0.0700
     29 H29        -2.8683    4.3660   52.7828 H       1  ZINC001345966764    0.1100
     30 H30        -2.1940    2.8954   53.5251 H       1  ZINC001345966764    0.1100
     31 H31        -4.7114    2.1833   53.5332 H       1  ZINC001345966764    0.4200
     32 H32        -6.2532    1.3158   52.8979 H       1  ZINC001345966764    0.4200
     33 H33        -8.1147    1.1259   50.6894 H       1  ZINC001345966764    0.1000
     34 H34        -7.1985   -0.3755   50.9630 H       1  ZINC001345966764    0.0900
     35 H35        -9.0414    1.9126   53.7808 H       1  ZINC001345966764    0.0900
     36 H36        -9.5355    2.0272   52.0622 H       1  ZINC001345966764    0.0900
     37 H37       -11.0674    0.9331   54.2979 H       1  ZINC001345966764    0.1000
     38 H38       -11.5614    1.0477   52.5793 H       1  ZINC001345966764    0.0900
@<TRIPOS>BOND
     1     1     2    1
     2     1    25    1
     3     1    26    1
     4     2     3    1
     5     2    27    1
     6     2    28    1
     7     3     4    1
     8     3     5    1
     9     3     6    1
    10     6     7    1
    11     6    29    1
    12     6    30    1
    13     7     8   am
    14     7    31    1
    15     8     9    2
    16     8    10    1
    17    10    11    2
    18    10    12   am
    19    12    13    1
    20    12    32    1
    21    13    14    1
    22    13    33    1
    23    13    34    1
    24    14    15    1
    25    14    24    1
    26    14    16    1
    27    16    17    1
    28    16    35    1
    29    16    36    1
    30    17    18    1
    31    17    37    1
    32    17    38    1
    33    18    19    1
    34    18    20    1
    35    18    24    1
    36    20    21    1
    37    20    22    1
    38    20    23    1
@<TRIPOS>SUBSTRUCTURE
     1 ZINC001345966764        1 TEMP              0 ****  ****    0 ROOT


##########                                Name:    ZINC001362451754
##########                DOCK_Rotatable_Bonds:                   6
##########                         Heavy_Atoms:                  22
##########                    Molecular_Weight:             339.846
##########                DOCK_Rotatable_Bonds:                   6
##########                       Formal_Charge:         -0.00999987
##########                     HBond_Acceptors:                   7
##########                        HBond_Donors:                   1
##########                         Heavy_Atoms:                  22
##########                          Grid_Score:          -27.896870
##########                     Grid_vdw_energy:          -27.764013
##########                      Grid_es_energy:           -0.132856
##########           Internal_energy_repulsive:           14.937277

@<TRIPOS>MOLECULE
ZINC001362451754
 40 42 1 0 0
SMALL
USER_CHARGES


@<TRIPOS>ATOM
      1 C1        -11.7437   -3.1754   53.9230 C.3     1  ZINC001362451754   -0.1700
      2 C2        -12.2240   -1.7244   53.9915 C.3     1  ZINC001362451754    0.1400
      3 H3        -13.0328   -1.5654   53.2783 H       1  ZINC001362451754    0.0800
      4 C4        -12.7119   -1.3999   55.4192 C.3     1  ZINC001362451754   -0.1000
      5 H5        -13.5634   -0.7200   55.3905 H       1  ZINC001362451754    0.1000
      6 C6        -13.0664   -2.6823   56.1747 C.3     1  ZINC001362451754    0.0900
      7 O7        -13.6507   -2.3467   57.4349 O.3     1  ZINC001362451754   -0.5700
      8 C8        -11.4789   -0.7088   56.0591 C.3     1  ZINC001362451754   -0.1200
      9 C9        -10.8960    0.0687   54.8554 C.3     1  ZINC001362451754    0.0900
     10 N10       -11.1087   -0.8139   53.6939 N.am    1  ZINC001362451754   -0.6100
     11 C11       -10.3951   -0.7934   52.5507 C.2     1  ZINC001362451754    0.6100
     12 O12       -10.6602   -1.5722   51.6539 O.2     1  ZINC001362451754   -0.5200
     13 C13        -9.2996    0.1668   52.3877 C.2     1  ZINC001362451754   -0.2500
     14 C14        -7.9678   -0.1302   52.4600 C.2     1  ZINC001362451754   -0.0500
     15 C15        -7.1559    0.9636   52.2750 C.2     1  ZINC001362451754   -0.1100
     16 C16        -7.7982    2.1154   52.0483 C.2     1  ZINC001362451754   -0.2500
     17 C17        -7.1192    3.4401   51.8138 C.3     1  ZINC001362451754    0.2100
     18 N18        -5.9032    3.2325   51.0235 N.pl3   1  ZINC001362451754   -0.3700
     19 C19        -4.6361    3.2787   51.4881 C.2     1  ZINC001362451754    0.0700
     20 C20        -3.8062    3.0312   50.4476 C.2     1  ZINC001362451754   -0.1800
     21 Cl21       -2.0725    2.9730   50.5151 Cl      1  ZINC001362451754   -0.0400
     22 C22        -4.5928    2.8367   49.3068 C.2     1  ZINC001362451754    0.0700
     23 N23        -5.8494    2.9571   49.6510 N.2     1  ZINC001362451754   -0.2700
     24 S24        -9.4887    1.8856   52.0683 S.3     1  ZINC001362451754    0.2300
     25 H25       -10.9313   -3.3232   54.6346 H       1  ZINC001362451754    0.0600
     26 H26       -12.5689   -3.8434   54.1699 H       1  ZINC001362451754    0.0700
     27 H27       -11.3886   -3.3934   52.9158 H       1  ZINC001362451754    0.0700
     28 H28       -13.7769   -3.2649   55.5883 H       1  ZINC001362451754    0.0500
     29 H29       -12.1626   -3.2693   56.3381 H       1  ZINC001362451754    0.0500
     30 H30       -13.9534   -3.1110   57.9440 H       1  ZINC001362451754    0.3800
     31 H31       -11.7817   -0.0292   56.8558 H       1  ZINC001362451754    0.0900
     32 H32       -10.7652   -1.4458   56.4273 H       1  ZINC001362451754    0.0800
     33 H33        -9.8318    0.2533   55.0019 H       1  ZINC001362451754    0.0800
     34 H34       -11.4299    1.0093   54.7200 H       1  ZINC001362451754    0.0800
     35 H35        -7.5905   -1.1246   52.6482 H       1  ZINC001362451754    0.1600
     36 H36        -6.0783    0.8974   52.3065 H       1  ZINC001362451754    0.1500
     37 H37        -7.7944    4.1040   51.2739 H       1  ZINC001362451754    0.1100
     38 H38        -6.8575    3.8889   52.7720 H       1  ZINC001362451754    0.1100
     39 H39        -4.3383    3.4752   52.5074 H       1  ZINC001362451754    0.1800
     40 H40        -4.2259    2.6241   48.3134 H       1  ZINC001362451754    0.1900
@<TRIPOS>BOND
     1     1     2    1
     2     1    25    1
     3     1    26    1
     4     1    27    1
     5     2     3    1
     6     2    10    1
     7     2     4    1
     8     4     5    1
     9     4     6    1
    10     4     8    1
    11     6     7    1
    12     6    28    1
    13     6    29    1
    14     7    30    1
    15     8     9    1
    16     8    31    1
    17     8    32    1
    18     9    10    1
    19     9    33    1
    20     9    34    1
    21    10    11   am
    22    11    12    2
    23    11    13    1
    24    13    24    1
    25    13    14    2
    26    14    15    1
    27    14    35    1
    28    15    16    2
    29    15    36    1
    30    16    17    1
    31    16    24    1
    32    17    18    1
    33    17    37    1
    34    17    38    1
    35    18    23    1
    36    18    19    1
    37    19    20    2
    38    19    39    1
    39    20    21    1
    40    20    22    1
    41    22    23    2
    42    22    40    1
@<TRIPOS>SUBSTRUCTURE
     1 ZINC001362451754        1 TEMP              0 ****  ****    0 ROOT


##########                                Name:    ZINC000347662449
##########                DOCK_Rotatable_Bonds:                   5
##########                         Heavy_Atoms:                  23
##########                    Molecular_Weight:              327.45
##########                DOCK_Rotatable_Bonds:                   5
##########                       Formal_Charge:                0.03
##########                     HBond_Acceptors:                   5
##########                        HBond_Donors:                   0
##########                         Heavy_Atoms:                  23
##########                          Grid_Score:          -27.887754
##########                     Grid_vdw_energy:          -27.194849
##########                      Grid_es_energy:           -0.692905
##########           Internal_energy_repulsive:            5.759960

@<TRIPOS>MOLECULE
ZINC000347662449
 44 46 1 0 0
SMALL
USER_CHARGES


@<TRIPOS>ATOM
      1 C1         -4.3033    2.3671   49.7905 C.2     1  ZINC000347662449   -0.1800
      2 C2         -5.1377    2.1008   50.7647 C.2     1  ZINC000347662449   -0.1700
      3 C3         -6.5293    2.6786   50.7439 C.3     1  ZINC000347662449    0.1600
      4 N4         -7.4696    1.7079   51.3095 N.am    1  ZINC000347662449   -0.6200
      5 C5         -7.3471    0.2529   51.1609 C.3     1  ZINC000347662449    0.1100
      6 C6         -8.2633   -0.3510   52.2483 C.3     1  ZINC000347662449   -0.1100
      7 C7         -9.2903    0.7851   52.4617 C.3     1  ZINC000347662449   -0.1200
      8 H8        -10.1702    0.6260   51.8385 H       1  ZINC000347662449    0.1400
      9 S9         -9.7622    0.8928   54.2058 S.3     1  ZINC000347662449    0.0300
     10 C10       -10.8533   -0.4866   54.3134 C.2     1  ZINC000347662449    0.1900
     11 N11       -11.3109   -1.1850   53.3003 N.2     1  ZINC000347662449   -0.4500
     12 C12       -12.1147   -2.1596   53.7582 C.2     1  ZINC000347662449   -0.0100
     13 C13       -12.1652   -2.0734   55.0984 C.2     1  ZINC000347662449   -0.0400
     14 N14       -11.3615   -1.0145   55.4636 N.pl3   1  ZINC000347662449   -0.4000
     15 C15       -11.1194   -0.5615   56.7680 C.ar    1  ZINC000347662449    0.1100
     16 C16       -11.4204    0.7480   57.1165 C.ar    1  ZINC000347662449   -0.1100
     17 C17       -11.1807    1.1916   58.4027 C.ar    1  ZINC000347662449   -0.1000
     18 C18       -10.6415    0.3327   59.3423 C.ar    1  ZINC000347662449   -0.0800
     19 C19       -10.3817    0.8195   60.7447 C.3     1  ZINC000347662449   -0.1200
     20 C20       -10.3405   -0.9725   58.9981 C.ar    1  ZINC000347662449   -0.0700
     21 C21        -9.7530   -1.9056   60.0253 C.3     1  ZINC000347662449   -0.1200
     22 C22       -10.5833   -1.4234   57.7155 C.ar    1  ZINC000347662449   -0.1100
     23 C23        -8.5522    2.0351   52.0358 C.2     1  ZINC000347662449    0.5300
     24 O24        -8.8920    3.1679   52.3045 O.2     1  ZINC000347662449   -0.4900
     25 H25        -4.6127    3.0009   48.9725 H       1  ZINC000347662449    0.1000
     26 H26        -3.3045    1.9566   49.8075 H       1  ZINC000347662449    0.1000
     27 H27        -4.8282    1.4670   51.5826 H       1  ZINC000347662449    0.1100
     28 H28        -6.5517    3.5935   51.3360 H       1  ZINC000347662449    0.0900
     29 H29        -6.8139    2.9039   49.7162 H       1  ZINC000347662449    0.0900
     30 H30        -7.6833   -0.0548   50.1707 H       1  ZINC000347662449    0.0800
     31 H31        -6.3147   -0.0571   51.3227 H       1  ZINC000347662449    0.0900
     32 H32        -8.7522   -1.2561   51.8878 H       1  ZINC000347662449    0.1100
     33 H33        -7.7048   -0.5490   53.1631 H       1  ZINC000347662449    0.0900
     34 H34       -12.6322   -2.8885   53.1522 H       1  ZINC000347662449    0.1800
     35 H35       -12.7259   -2.7139   55.7631 H       1  ZINC000347662449    0.1800
     36 H36       -11.8413    1.4195   56.3829 H       1  ZINC000347662449    0.1300
     37 H37       -11.4144    2.2104   58.6743 H       1  ZINC000347662449    0.1300
     38 H38       -11.2650    0.6455   61.3592 H       1  ZINC000347662449    0.0800
     39 H39        -9.5339    0.2790   61.1657 H       1  ZINC000347662449    0.0700
     40 H40       -10.1583    1.8862   60.7234 H       1  ZINC000347662449    0.0700
     41 H41       -10.5572   -2.4217   60.5497 H       1  ZINC000347662449    0.0800
     42 H42        -9.1148   -2.6369   59.5291 H       1  ZINC000347662449    0.0700
     43 H43        -9.1617   -1.3332   60.7401 H       1  ZINC000347662449    0.0800
     44 H44       -10.3484   -2.4428   57.4473 H       1  ZINC000347662449    0.1300
@<TRIPOS>BOND
     1     1     2    2
     2     1    25    1
     3     1    26    1
     4     2     3    1
     5     2    27    1
     6     3     4    1
     7     3    28    1
     8     3    29    1
     9     4    23   am
    10     4     5    1
    11     5     6    1
    12     5    30    1
    13     5    31    1
    14     6     7    1
    15     6    32    1
    16     6    33    1
    17     7     8    1
    18     7     9    1
    19     7    23    1
    20     9    10    1
    21    10    14    1
    22    10    11    2
    23    11    12    1
    24    12    13    2
    25    12    34    1
    26    13    14    1
    27    13    35    1
    28    14    15    1
    29    15    22   ar
    30    15    16   ar
    31    16    17   ar
    32    16    36    1
    33    17    18   ar
    34    17    37    1
    35    18    19    1
    36    18    20   ar
    37    19    38    1
    38    19    39    1
    39    19    40    1
    40    20    21    1
    41    20    22   ar
    42    21    41    1
    43    21    42    1
    44    21    43    1
    45    22    44    1
    46    23    24    2
@<TRIPOS>SUBSTRUCTURE
     1 ZINC000347662449        1 TEMP              0 ****  ****    0 ROOT


##########                                Name:    ZINC000579444893
##########                DOCK_Rotatable_Bonds:                   8
##########                         Heavy_Atoms:                  26
##########                    Molecular_Weight:             365.494
##########                DOCK_Rotatable_Bonds:                   8
##########                       Formal_Charge:         -0.00999993
##########                     HBond_Acceptors:                   7
##########                        HBond_Donors:                   1
##########                         Heavy_Atoms:                  26
##########                          Grid_Score:          -27.874252
##########                     Grid_vdw_energy:          -26.993231
##########                      Grid_es_energy:           -0.881021
##########           Internal_energy_repulsive:           32.481709

@<TRIPOS>MOLECULE
ZINC000579444893
 58 60 1 0 0
SMALL
USER_CHARGES


@<TRIPOS>ATOM
      1 C1         -8.5959    6.1914   52.6608 C.3     1  ZINC000579444893   -0.1600
      2 C2         -8.3600    5.9825   51.1635 C.3     1  ZINC000579444893    0.1700
      3 H3         -7.7091    6.7706   50.7849 H       1  ZINC000579444893    0.0900
      4 N4         -7.7266    4.6796   50.9461 N.am    1  ZINC000579444893   -0.7400
      5 C5         -6.3829    4.5755   50.9428 C.2     1  ZINC000579444893    0.7100
      6 O6         -5.6963    5.5635   51.1189 O.2     1  ZINC000579444893   -0.5900
      7 N7         -5.8003    3.3765   50.7444 N.am    1  ZINC000579444893   -0.6300
      8 C8         -6.6275    2.1866   50.5305 C.3     1  ZINC000579444893    0.0800
      9 C9         -4.3397    3.2632   50.7427 C.3     1  ZINC000579444893    0.1100
     10 C10        -3.8749    2.6397   52.0603 C.3     1  ZINC000579444893    0.0600
     11 H11        -4.3180    1.6510   52.1792 H       1  ZINC000579444893    0.1000
     12 C12        -4.2841    3.5439   53.2421 C.3     1  ZINC000579444893   -0.1600
     13 C13        -3.0662    3.4426   54.1977 C.3     1  ZINC000579444893    0.0800
     14 H14        -3.1243    2.5429   54.8104 H       1  ZINC000579444893    0.1000
     15 F15        -2.9611    4.5850   54.9984 F       1  ZINC000579444893   -0.2000
     16 C16        -1.8883    3.3562   53.1953 C.3     1  ZINC000579444893    0.0200
     17 N17        -2.4042    2.5353   52.0747 N.3     1  ZINC000579444893   -0.5000
     18 C18        -1.8329    2.9739   50.7944 C.3     1  ZINC000579444893    0.1000
     19 C19        -0.3321    2.8478   50.8445 C.2     1  ZINC000579444893    0.0800
     20 C20         0.3656    1.8565   51.4457 C.2     1  ZINC000579444893   -0.2500
     21 C21         1.7277    2.1148   51.2597 C.2     1  ZINC000579444893    0.0400
     22 N22         1.8434    3.2215   50.5715 N.2     1  ZINC000579444893   -0.2900
     23 N23         0.5568    3.7002   50.2928 N.pl3   1  ZINC000579444893   -0.3700
     24 C24         0.2334    4.9165   49.5429 C.3     1  ZINC000579444893    0.0900
     25 C25        -9.6991    6.0283   50.4249 C.3     1  ZINC000579444893   -0.1000
     26 C26        -9.5034    5.6897   48.9262 C.3     1  ZINC000579444893   -0.1200
     27 C27       -10.9074    5.1916   48.5023 C.3     1  ZINC000579444893   -0.1300
     28 C28       -11.4081    4.3891   49.7209 C.3     1  ZINC000579444893   -0.1300
     29 C29       -10.6398    4.9210   50.9433 C.3     1  ZINC000579444893   -0.1200
     30 H30        -7.6554    6.0676   53.1975 H       1  ZINC000579444893    0.0600
     31 H31        -8.9818    7.1965   52.8310 H       1  ZINC000579444893    0.0700
     32 H32        -9.3186    5.4590   53.0204 H       1  ZINC000579444893    0.0500
     33 H33        -8.2744    3.8917   50.8045 H       1  ZINC000579444893    0.4000
     34 H34        -6.8984    2.1169   49.4771 H       1  ZINC000579444893    0.0600
     35 H35        -6.0676    1.2977   50.8213 H       1  ZINC000579444893    0.0800
     36 H36        -7.5322    2.2597   51.1342 H       1  ZINC000579444893    0.0700
     37 H37        -4.0252    2.6324   49.9114 H       1  ZINC000579444893    0.0900
     38 H38        -3.8985    4.2540   50.6341 H       1  ZINC000579444893    0.0900
     39 H39        -4.4283    4.5716   52.9091 H       1  ZINC000579444893    0.1100
     40 H40        -5.1848    3.1639   53.7241 H       1  ZINC000579444893    0.0800
     41 H41        -1.6151    4.3513   52.8442 H       1  ZINC000579444893    0.0600
     42 H42        -1.0310    2.8677   53.6584 H       1  ZINC000579444893    0.0900
     43 H43        -2.2233    2.3506   49.9898 H       1  ZINC000579444893    0.1100
     44 H44        -2.1043    4.0138   50.6126 H       1  ZINC000579444893    0.0500
     45 H45        -0.0549    1.0148   51.9759 H       1  ZINC000579444893    0.1500
     46 H46         2.5428    1.5061   51.6222 H       1  ZINC000579444893    0.1800
     47 H47         0.0862    4.6671   48.4920 H       1  ZINC000579444893    0.0800
     48 H48        -0.6793    5.3581   49.9427 H       1  ZINC000579444893    0.0800
     49 H49         1.0529    5.6293   49.6357 H       1  ZINC000579444893    0.0900
     50 H50       -10.1635    7.0078   50.5393 H       1  ZINC000579444893    0.0800
     51 H51        -9.2227    6.5794   48.3626 H       1  ZINC000579444893    0.0700
     52 H52        -8.7604    4.9020   48.8020 H       1  ZINC000579444893    0.0700
     53 H53       -11.5679    6.0357   48.3040 H       1  ZINC000579444893    0.0700
     54 H54       -10.8353    4.5483   47.6253 H       1  ZINC000579444893    0.0700
     55 H55       -12.4785    4.5442   49.8560 H       1  ZINC000579444893    0.0600
     56 H56       -11.1989    3.3285   49.5811 H       1  ZINC000579444893    0.0600
     57 H57       -10.0578    4.1188   51.3967 H       1  ZINC000579444893    0.0600
     58 H58       -11.3373    5.3345   51.6718 H       1  ZINC000579444893    0.0600
@<TRIPOS>BOND
     1     1     2    1
     2     1    30    1
     3     1    31    1
     4     1    32    1
     5     2     3    1
     6     2     4    1
     7     2    25    1
     8     4     5   am
     9     4    33    1
    10     5     6    2
    11     5     7   am
    12     7     8    1
    13     7     9    1
    14     8    34    1
    15     8    35    1
    16     8    36    1
    17     9    10    1
    18     9    37    1
    19     9    38    1
    20    10    11    1
    21    10    17    1
    22    10    12    1
    23    12    13    1
    24    12    39    1
    25    12    40    1
    26    13    14    1
    27    13    15    1
    28    13    16    1
    29    16    17    1
    30    16    41    1
    31    16    42    1
    32    17    18    1
    33    18    19    1
    34    18    43    1
    35    18    44    1
    36    19    23    1
    37    19    20    2
    38    20    21    1
    39    20    45    1
    40    21    22    2
    41    21    46    1
    42    22    23    1
    43    23    24    1
    44    24    47    1
    45    24    48    1
    46    24    49    1
    47    25    29    1
    48    25    26    1
    49    25    50    1
    50    26    27    1
    51    26    51    1
    52    26    52    1
    53    27    28    1
    54    27    53    1
    55    27    54    1
    56    28    29    1
    57    28    55    1
    58    28    56    1
    59    29    57    1
    60    29    58    1
@<TRIPOS>SUBSTRUCTURE
     1 ZINC000579444893        1 TEMP              0 ****  ****    0 ROOT


##########                                Name:    ZINC000768148687
##########                DOCK_Rotatable_Bonds:                   8
##########                         Heavy_Atoms:                  25
##########                    Molecular_Weight:             371.307
##########                DOCK_Rotatable_Bonds:                   8
##########                       Formal_Charge:         2.98023e-08
##########                     HBond_Acceptors:                  11
##########                        HBond_Donors:                   0
##########                         Heavy_Atoms:                  25
##########                          Grid_Score:          -27.871828
##########                     Grid_vdw_energy:          -27.487066
##########                      Grid_es_energy:           -0.384762
##########           Internal_energy_repulsive:            8.883642

@<TRIPOS>MOLECULE
ZINC000768148687
 43 44 1 0 0
SMALL
USER_CHARGES


@<TRIPOS>ATOM
      1 C1        -16.7471   -1.8699   59.5486 C.3     1  ZINC000768148687   -0.1800
      2 C2        -16.0665   -3.2305   59.3866 C.3     1  ZINC000768148687    0.1100
      3 N3        -14.6874   -3.0357   58.9323 N.pl3   1  ZINC000768148687   -0.3100
      4 N4        -13.6578   -2.4466   59.6745 N.2     1  ZINC000768148687   -0.2000
      5 C5        -12.5689   -2.4404   58.9564 C.2     1  ZINC000768148687    0.0200
      6 C6        -11.2301   -1.8955   59.3825 C.3     1  ZINC000768148687    0.5500
      7 F7        -10.7499   -1.0199   58.4027 F       1  ZINC000768148687   -0.1600
      8 F8        -11.3700   -1.2088   60.5933 F       1  ZINC000768148687   -0.1600
      9 F9        -10.3276   -2.9516   59.5468 F       1  ZINC000768148687   -0.1500
     10 C10       -12.8650   -3.0345   57.7085 C.2     1  ZINC000768148687   -0.1800
     11 C11       -11.9272   -3.2341   56.5905 C.2     1  ZINC000768148687    0.5300
     12 O12       -10.9237   -3.9005   56.7507 O.2     1  ZINC000768148687   -0.4700
     13 O13       -12.1819   -2.6777   55.3898 O.3     1  ZINC000768148687   -0.3400
     14 C14       -11.2649   -2.9933   54.3092 C.3     1  ZINC000768148687    0.0200
     15 C15       -11.3856   -1.9337   53.2122 C.3     1  ZINC000768148687    0.0600
     16 N16       -10.3532   -0.9070   53.4072 N.3     1  ZINC000768148687   -0.5300
     17 C17       -10.8388    0.1687   54.2837 C.3     1  ZINC000768148687    0.0100
     18 C18        -9.7149    1.1838   54.5076 C.3     1  ZINC000768148687    0.0600
     19 O19        -9.2661    1.6773   53.2426 O.3     1  ZINC000768148687   -0.3800
     20 C20        -8.7855    0.6564   52.3640 C.3     1  ZINC000768148687    0.0600
     21 C21        -9.9001   -0.3641   52.1182 C.3     1  ZINC000768148687    0.0100
     22 C22       -14.1974   -3.3978   57.7363 C.2     1  ZINC000768148687    0.0600
     23 C23       -14.9626   -4.0680   56.6245 C.3     1  ZINC000768148687    0.3400
     24 F24       -15.3505   -5.3490   57.0317 F       1  ZINC000768148687   -0.1700
     25 F25       -16.0991   -3.3118   56.3188 F       1  ZINC000768148687   -0.1800
     26 H26       -17.7732   -2.0148   59.8866 H       1  ZINC000768148687    0.0900
     27 H27       -16.2029   -1.2766   60.2835 H       1  ZINC000768148687    0.0700
     28 H28       -16.7501   -1.3489   58.5912 H       1  ZINC000768148687    0.0700
     29 H29       -16.0634   -3.7516   60.3440 H       1  ZINC000768148687    0.1100
     30 H30       -16.6106   -3.8238   58.6518 H       1  ZINC000768148687    0.1200
     31 H31       -10.2440   -3.0062   54.6911 H       1  ZINC000768148687    0.0800
     32 H32       -11.5114   -3.9720   53.8977 H       1  ZINC000768148687    0.0800
     33 H33       -11.2517   -2.4030   52.2375 H       1  ZINC000768148687    0.1100
     34 H34       -12.3715   -1.4714   53.2604 H       1  ZINC000768148687    0.0900
     35 H35       -11.6889    0.6644   53.8148 H       1  ZINC000768148687    0.0500
     36 H36       -11.1451   -0.2524   55.2413 H       1  ZINC000768148687    0.0900
     37 H37       -10.0874    2.0122   55.1102 H       1  ZINC000768148687    0.1000
     38 H38        -8.8859    0.7007   55.0248 H       1  ZINC000768148687    0.0600
     39 H39        -8.4859    1.1033   51.4161 H       1  ZINC000768148687    0.1000
     40 H40        -7.9296    0.1579   52.8188 H       1  ZINC000768148687    0.0600
     41 H41        -9.5211   -1.1741   51.4951 H       1  ZINC000768148687    0.0800
     42 H42       -10.7351    0.1231   51.6148 H       1  ZINC000768148687    0.0700
     43 H43       -14.3284   -4.1441   55.7413 H       1  ZINC000768148687    0.1500
@<TRIPOS>BOND
     1     1     2    1
     2     1    26    1
     3     1    27    1
     4     1    28    1
     5     2     3    1
     6     2    29    1
     7     2    30    1
     8     3    22    1
     9     3     4    1
    10     4     5    2
    11     5     6    1
    12     5    10    1
    13     6     7    1
    14     6     8    1
    15     6     9    1
    16    10    11    1
    17    10    22    2
    18    11    12    2
    19    11    13    1
    20    13    14    1
    21    14    15    1
    22    14    31    1
    23    14    32    1
    24    15    16    1
    25    15    33    1
    26    15    34    1
    27    16    21    1
    28    16    17    1
    29    17    18    1
    30    17    35    1
    31    17    36    1
    32    18    19    1
    33    18    37    1
    34    18    38    1
    35    19    20    1
    36    20    21    1
    37    20    39    1
    38    20    40    1
    39    21    41    1
    40    21    42    1
    41    22    23    1
    42    23    24    1
    43    23    25    1
    44    23    43    1
@<TRIPOS>SUBSTRUCTURE
     1 ZINC000768148687        1 TEMP              0 ****  ****    0 ROOT


##########                                Name:    ZINC000840649129
##########                DOCK_Rotatable_Bonds:                   8
##########                         Heavy_Atoms:                  26
##########                    Molecular_Weight:             376.839
##########                DOCK_Rotatable_Bonds:                   8
##########                       Formal_Charge:          -0.0199998
##########                     HBond_Acceptors:                   7
##########                        HBond_Donors:                   3
##########                         Heavy_Atoms:                  26
##########                          Grid_Score:          -27.858311
##########                     Grid_vdw_energy:          -27.501982
##########                      Grid_es_energy:           -0.356330
##########           Internal_energy_repulsive:           19.586452

@<TRIPOS>MOLECULE
ZINC000840649129
 47 48 1 0 0
SMALL
USER_CHARGES


@<TRIPOS>ATOM
      1 C1        -13.0618   -3.9918   56.8415 C.3     1  ZINC000840649129    0.0200
      2 O2        -12.4085   -2.8707   56.2429 O.3     1  ZINC000840649129   -0.2900
      3 C3        -11.4842   -2.2217   56.9959 C.ar    1  ZINC000840649129    0.1400
      4 C4        -10.7064   -2.9269   57.9013 C.ar    1  ZINC000840649129   -0.1700
      5 C5         -9.7659   -2.2688   58.6681 C.ar    1  ZINC000840649129   -0.1200
      6 C6         -9.5906   -0.8951   58.5388 C.ar    1  ZINC000840649129    0.1700
      7 N7         -8.6344   -0.2366   59.3205 N.pl3   1  ZINC000840649129   -0.8800
      8 C8        -10.3591   -0.1778   57.6383 C.ar    1  ZINC000840649129   -0.1000
      9 C9        -11.3100   -0.8379   56.8558 C.ar    1  ZINC000840649129   -0.1200
     10 C10       -12.1321   -0.0815   55.8941 C.2     1  ZINC000840649129    0.5100
     11 O11       -13.3328    0.0075   56.0592 O.2     1  ZINC000840649129   -0.4800
     12 O12       -11.5523    0.5115   54.8321 O.3     1  ZINC000840649129   -0.3200
     13 C13       -10.8146   -0.3448   53.9204 C.3     1  ZINC000840649129    0.0800
     14 H14       -10.5993   -1.2952   54.4087 H       1  ZINC000840649129    0.1200
     15 C15        -9.5214    0.3268   53.5360 C.2     1  ZINC000840649129    0.5200
     16 O16        -8.8063    0.8013   54.3931 O.2     1  ZINC000840649129   -0.4900
     17 N17        -9.1596    0.4002   52.2399 N.am    1  ZINC000840649129   -0.6600
     18 C18        -7.9585    1.0240   51.8827 C.ar    1  ZINC000840649129    0.1600
     19 C19        -6.7578    0.3364   51.9938 C.ar    1  ZINC000840649129   -0.1400
     20 C20        -5.5738    0.9546   51.6401 C.ar    1  ZINC000840649129   -0.0900
     21 C21        -5.5835    2.2567   51.1757 C.ar    1  ZINC000840649129   -0.1300
     22 C22        -6.7777    2.9455   51.0639 C.ar    1  ZINC000840649129   -0.0900
     23 C23        -7.9660    2.3313   51.4105 C.ar    1  ZINC000840649129   -0.0700
     24 Cl24       -9.4648    3.1958   51.2694 Cl      1  ZINC000840649129   -0.0700
     25 C25       -11.6524   -0.5946   52.6648 C.3     1  ZINC000840649129   -0.1100
     26 C26       -12.7259   -1.6418   52.9681 C.3     1  ZINC000840649129   -0.1600
     27 C27       -12.3218    0.7108   52.2303 C.3     1  ZINC000840649129   -0.1500
     28 H28       -13.7740   -4.4175   56.1344 H       1  ZINC000840649129    0.1000
     29 H29       -12.3202   -4.7448   57.1080 H       1  ZINC000840649129    0.0600
     30 H30       -13.5898   -3.6682   57.7385 H       1  ZINC000840649129    0.0600
     31 H31       -10.8370   -3.9937   58.0073 H       1  ZINC000840649129    0.1400
     32 H32        -9.1634   -2.8235   59.3723 H       1  ZINC000840649129    0.1300
     33 H33        -8.0949   -0.7383   59.9516 H       1  ZINC000840649129    0.4000
     34 H34        -8.5112    0.7213   59.2313 H       1  ZINC000840649129    0.4000
     35 H35       -10.2218    0.8888   57.5385 H       1  ZINC000840649129    0.1400
     36 H36        -9.7315    0.0206   51.5544 H       1  ZINC000840649129    0.4200
     37 H37        -6.7489   -0.6807   52.3568 H       1  ZINC000840649129    0.1700
     38 H38        -4.6395    0.4200   51.7268 H       1  ZINC000840649129    0.1300
     39 H39        -4.6565    2.7373   50.9000 H       1  ZINC000840649129    0.1300
     40 H40        -6.7819    3.9627   50.7011 H       1  ZINC000840649129    0.1400
     41 H41       -11.0077   -0.9565   51.8639 H       1  ZINC000840649129    0.0900
     42 H42       -13.2905   -1.3386   53.8498 H       1  ZINC000840649129    0.0700
     43 H43       -13.4007   -1.7275   52.1164 H       1  ZINC000840649129    0.0800
     44 H44       -12.2513   -2.6052   53.1541 H       1  ZINC000840649129    0.0600
     45 H45       -11.5570    1.4569   52.0143 H       1  ZINC000840649129    0.0500
     46 H46       -12.9186    0.5328   51.3358 H       1  ZINC000840649129    0.0600
     47 H47       -12.9664    1.0728   53.0312 H       1  ZINC000840649129    0.0700
@<TRIPOS>BOND
     1     1     2    1
     2     1    28    1
     3     1    29    1
     4     1    30    1
     5     2     3    1
     6     3     9   ar
     7     3     4   ar
     8     4     5   ar
     9     4    31    1
    10     5     6   ar
    11     5    32    1
    12     6     7    1
    13     6     8   ar
    14     7    33    1
    15     7    34    1
    16     8     9   ar
    17     8    35    1
    18     9    10    1
    19    10    11    2
    20    10    12    1
    21    12    13    1
    22    13    14    1
    23    13    15    1
    24    13    25    1
    25    15    16    2
    26    15    17   am
    27    17    18    1
    28    17    36    1
    29    18    23   ar
    30    18    19   ar
    31    19    20   ar
    32    19    37    1
    33    20    21   ar
    34    20    38    1
    35    21    22   ar
    36    21    39    1
    37    22    23   ar
    38    22    40    1
    39    23    24    1
    40    25    26    1
    41    25    27    1
    42    25    41    1
    43    26    42    1
    44    26    43    1
    45    26    44    1
    46    27    45    1
    47    27    46    1
    48    27    47    1
@<TRIPOS>SUBSTRUCTURE
     1 ZINC000840649129        1 TEMP              0 ****  ****    0 ROOT


##########                                Name:    ZINC000550011575
##########                DOCK_Rotatable_Bonds:                   6
##########                         Heavy_Atoms:                  28
##########                    Molecular_Weight:             423.935
##########                DOCK_Rotatable_Bonds:                   6
##########                       Formal_Charge:          -0.0100002
##########                     HBond_Acceptors:                   7
##########                        HBond_Donors:                   0
##########                         Heavy_Atoms:                  28
##########                          Grid_Score:          -27.850937
##########                     Grid_vdw_energy:          -27.107786
##########                      Grid_es_energy:           -0.743151
##########           Internal_energy_repulsive:           33.477791

@<TRIPOS>MOLECULE
ZINC000550011575
 51 53 1 0 0
SMALL
USER_CHARGES


@<TRIPOS>ATOM
      1 C1         -6.9371    1.0731   51.1489 C.3     1  ZINC000550011575   -0.1400
      2 C2         -6.9952    2.2030   52.1789 C.3     1  ZINC000550011575   -0.6100
      3 H3         -6.4684    1.8979   53.0831 H       1  ZINC000550011575    0.1500
      4 C4         -6.3424    3.4361   51.6092 C.2     1  ZINC000550011575    0.5400
      5 O5         -7.0258    4.3599   51.2215 O.2     1  ZINC000550011575   -0.5100
      6 N6         -4.9991    3.5121   51.5304 N.am    1  ZINC000550011575   -0.6000
      7 C7         -4.3644    4.7115   50.9781 C.3     1  ZINC000550011575    0.0600
      8 C8         -4.1737    2.3953   51.9969 C.3     1  ZINC000550011575    0.1500
      9 C9         -2.9355    2.9317   52.6681 C.ar    1  ZINC000550011575   -0.1500
     10 C10        -2.9997    3.3954   53.9707 C.ar    1  ZINC000550011575    0.1400
     11 F11        -4.1724    3.3676   54.6411 F       1  ZINC000550011575   -0.1100
     12 C12        -1.8611    3.8875   54.5865 C.ar    1  ZINC000550011575   -0.1500
     13 C13        -0.6618    3.9153   53.9006 C.ar    1  ZINC000550011575   -0.0700
     14 C14        -0.5977    3.4521   52.5996 C.ar    1  ZINC000550011575   -0.1300
     15 C15        -1.7330    2.9554   51.9847 C.ar    1  ZINC000550011575    0.0000
     16 Cl16       -1.6513    2.3733   50.3512 Cl      1  ZINC000550011575   -0.0500
     17 S17        -8.7263    2.5663   52.5811 S.o2    1  ZINC000550011575    2.4500
     18 O18        -8.7663    3.7218   53.4074 O.2     1  ZINC000550011575   -0.9200
     19 O19        -9.4842    2.5463   51.3793 O.2     1  ZINC000550011575   -0.9100
     20 C20        -9.1893    1.1250   53.5804 C.3     1  ZINC000550011575   -0.5300
     21 H21        -8.4804    0.3176   53.3966 H       1  ZINC000550011575    0.1500
     22 C22       -10.5903    0.6652   53.1825 C.3     1  ZINC000550011575   -0.1100
     23 C23       -11.0488   -0.4074   54.1774 C.3     1  ZINC000550011575   -0.1100
     24 C24       -11.3015    0.2630   55.5264 C.3     1  ZINC000550011575   -0.0900
     25 C25       -10.1140    1.0951   55.9346 C.ar    1  ZINC000550011575   -0.0600
     26 C26       -10.0084    1.4595   57.2703 C.ar    1  ZINC000550011575   -0.1200
     27 C27        -8.9470    2.2259   57.7062 C.ar    1  ZINC000550011575   -0.1100
     28 C28        -7.9811    2.6355   56.8064 C.ar    1  ZINC000550011575   -0.1100
     29 C29        -8.0830    2.2725   55.4791 C.ar    1  ZINC000550011575   -0.1500
     30 C30        -9.1494    1.4983   55.0392 C.ar    1  ZINC000550011575   -0.0800
     31 H31        -7.2580    0.1409   51.6139 H       1  ZINC000550011575    0.0900
     32 H32        -7.5970    1.3084   50.3139 H       1  ZINC000550011575    0.0900
     33 H33        -5.9153    0.9650   50.7854 H       1  ZINC000550011575    0.0800
     34 H34        -4.1753    5.4247   51.7804 H       1  ZINC000550011575    0.0700
     35 H35        -3.4211    4.4382   50.5052 H       1  ZINC000550011575    0.0800
     36 H36        -5.0244    5.1637   50.2380 H       1  ZINC000550011575    0.0700
     37 H37        -4.7419    1.7960   52.7083 H       1  ZINC000550011575    0.1000
     38 H38        -3.8870    1.7756   51.1473 H       1  ZINC000550011575    0.1100
     39 H39        -1.9105    4.2498   55.6026 H       1  ZINC000550011575    0.1500
     40 H40         0.2259    4.2995   54.3811 H       1  ZINC000550011575    0.1500
     41 H41         0.3401    3.4746   52.0644 H       1  ZINC000550011575    0.1400
     42 H42       -11.2767    1.5115   53.2129 H       1  ZINC000550011575    0.0800
     43 H43       -10.5673    0.2467   52.1762 H       1  ZINC000550011575    0.0900
     44 H44       -11.9684   -0.8707   53.8199 H       1  ZINC000550011575    0.0800
     45 H45       -10.2726   -1.1653   54.2837 H       1  ZINC000550011575    0.0700
     46 H46       -12.1801    0.9034   55.4506 H       1  ZINC000550011575    0.0800
     47 H47       -11.4798   -0.5033   56.2807 H       1  ZINC000550011575    0.0800
     48 H48       -10.7632    1.1406   57.9738 H       1  ZINC000550011575    0.1300
     49 H49        -8.8715    2.5051   58.7468 H       1  ZINC000550011575    0.1300
     50 H50        -7.1495    3.2380   57.1410 H       1  ZINC000550011575    0.1300
     51 H51        -7.3282    2.5935   54.7766 H       1  ZINC000550011575    0.1700
@<TRIPOS>BOND
     1     1     2    1
     2     1    31    1
     3     1    32    1
     4     1    33    1
     5     2     3    1
     6     2     4    1
     7     2    17    1
     8     4     5    2
     9     4     6   am
    10     6     7    1
    11     6     8    1
    12     7    34    1
    13     7    35    1
    14     7    36    1
    15     8     9    1
    16     8    37    1
    17     8    38    1
    18     9    15   ar
    19     9    10   ar
    20    10    11    1
    21    10    12   ar
    22    12    13   ar
    23    12    39    1
    24    13    14   ar
    25    13    40    1
    26    14    15   ar
    27    14    41    1
    28    15    16    1
    29    17    18    2
    30    17    19    2
    31    17    20    1
    32    20    21    1
    33    20    30    1
    34    20    22    1
    35    22    23    1
    36    22    42    1
    37    22    43    1
    38    23    24    1
    39    23    44    1
    40    23    45    1
    41    24    25    1
    42    24    46    1
    43    24    47    1
    44    25    30   ar
    45    25    26   ar
    46    26    27   ar
    47    26    48    1
    48    27    28   ar
    49    27    49    1
    50    28    29   ar
    51    28    50    1
    52    29    30   ar
    53    29    51    1
@<TRIPOS>SUBSTRUCTURE
     1 ZINC000550011575        1 TEMP              0 ****  ****    0 ROOT


##########                                Name:    ZINC000450219577
##########                DOCK_Rotatable_Bonds:                   8
##########                         Heavy_Atoms:                  26
##########                    Molecular_Weight:             353.421
##########                DOCK_Rotatable_Bonds:                   8
##########                       Formal_Charge:          -0.0199997
##########                     HBond_Acceptors:                   6
##########                        HBond_Donors:                   1
##########                         Heavy_Atoms:                  26
##########                          Grid_Score:          -27.848156
##########                     Grid_vdw_energy:          -27.443069
##########                      Grid_es_energy:           -0.405087
##########           Internal_energy_repulsive:           25.954950

@<TRIPOS>MOLECULE
ZINC000450219577
 49 51 1 0 0
SMALL
USER_CHARGES


@<TRIPOS>ATOM
      1 C1        -15.6410   -3.4257   58.1239 C.3     1  ZINC000450219577   -0.1800
      2 C2        -14.6782   -2.3105   58.5370 C.3     1  ZINC000450219577    0.1200
      3 C3        -14.7232   -1.1875   57.4989 C.3     1  ZINC000450219577   -0.1800
      4 C4        -15.0923   -1.7594   59.9029 C.3     1  ZINC000450219577   -0.1400
      5 O5        -13.3291   -2.8411   58.6179 O.3     1  ZINC000450219577   -0.3400
      6 C6        -12.8501   -3.4572   57.5257 C.2     1  ZINC000450219577    0.4700
      7 O7        -13.3210   -4.5120   57.1717 O.2     1  ZINC000450219577   -0.5000
      8 C8        -11.7249   -2.8331   56.7412 C.3     1  ZINC000450219577    0.2000
      9 H9        -11.0834   -3.6174   56.3394 H       1  ZINC000450219577    0.1400
     10 N10       -12.2780   -2.0422   55.6390 N.am    1  ZINC000450219577   -0.7100
     11 C11       -12.1183   -2.4559   54.3663 C.2     1  ZINC000450219577    0.5800
     12 O12       -11.5141   -3.4845   54.1328 O.2     1  ZINC000450219577   -0.5200
     13 C13       -12.6780   -1.6588   53.2542 C.ar    1  ZINC000450219577   -0.2500
     14 C14       -14.0093   -1.2281   53.2765 C.ar    1  ZINC000450219577    0.1900
     15 N15       -14.4682   -0.5172   52.2614 N.ar    1  ZINC000450219577   -0.5100
     16 C16       -13.6918   -0.2137   51.2397 C.ar    1  ZINC000450219577    0.3800
     17 C17       -14.2622    0.5993   50.1063 C.3     1  ZINC000450219577   -0.1100
     18 C18       -14.4230   -0.0930   48.7513 C.3     1  ZINC000450219577   -0.1500
     19 C19       -15.6563    0.2241   49.5994 C.3     1  ZINC000450219577   -0.1500
     20 N20       -12.4320   -0.5986   51.1783 N.ar    1  ZINC000450219577   -0.5200
     21 C21       -11.8898   -1.3085   52.1521 C.ar    1  ZINC000450219577    0.2200
     22 C22       -10.9176   -1.9381   57.6459 C.ar    1  ZINC000450219577   -0.1100
     23 C23       -10.7841   -0.5947   57.3492 C.ar    1  ZINC000450219577   -0.1000
     24 C24       -10.0438    0.2262   58.1791 C.ar    1  ZINC000450219577   -0.1200
     25 C25        -9.4371   -0.2963   59.3059 C.ar    1  ZINC000450219577   -0.1100
     26 C26        -9.5713   -1.6395   59.6032 C.ar    1  ZINC000450219577   -0.1200
     27 C27       -10.3153   -2.4596   58.7756 C.ar    1  ZINC000450219577   -0.0800
     28 H28       -15.3460   -3.8184   57.1508 H       1  ZINC000450219577    0.0800
     29 H29       -15.6089   -4.2257   58.8634 H       1  ZINC000450219577    0.0600
     30 H30       -16.6537   -3.0274   58.0632 H       1  ZINC000450219577    0.0700
     31 H31       -15.7360   -0.7892   57.4382 H       1  ZINC000450219577    0.0700
     32 H32       -14.0375   -0.3930   57.7933 H       1  ZINC000450219577    0.0600
     33 H33       -14.4283   -1.5801   56.5258 H       1  ZINC000450219577    0.0800
     34 H34       -15.0602   -2.5595   60.6424 H       1  ZINC000450219577    0.0700
     35 H35       -14.4065   -0.9650   60.1972 H       1  ZINC000450219577    0.0700
     36 H36       -16.1051   -1.3611   59.8421 H       1  ZINC000450219577    0.0800
     37 H37       -12.7591   -1.2208   55.8252 H       1  ZINC000450219577    0.4100
     38 H38       -14.6514   -1.4730   54.1097 H       1  ZINC000450219577    0.1700
     39 H39       -13.9931    1.6555   50.1033 H       1  ZINC000450219577    0.1300
     40 H40       -14.2595    0.5079   47.8566 H       1  ZINC000450219577    0.1000
     41 H41       -14.1161   -1.1364   48.6797 H       1  ZINC000450219577    0.1100
     42 H42       -16.1608   -0.6107   50.0858 H       1  ZINC000450219577    0.1000
     43 H43       -16.3042    1.0335   49.2628 H       1  ZINC000450219577    0.1100
     44 H44       -10.8573   -1.6201   52.0947 H       1  ZINC000450219577    0.1800
     45 H45       -11.2581   -0.1864   56.4688 H       1  ZINC000450219577    0.1200
     46 H46        -9.9389    1.2757   57.9468 H       1  ZINC000450219577    0.1200
     47 H47        -8.8580    0.3450   59.9539 H       1  ZINC000450219577    0.1300
     48 H48        -9.0970   -2.0478   60.4834 H       1  ZINC000450219577    0.1300
     49 H49       -10.4201   -3.5091   59.0078 H       1  ZINC000450219577    0.1300
@<TRIPOS>BOND
     1     1     2    1
     2     1    28    1
     3     1    29    1
     4     1    30    1
     5     2     3    1
     6     2     4    1
     7     2     5    1
     8     3    31    1
     9     3    32    1
    10     3    33    1
    11     4    34    1
    12     4    35    1
    13     4    36    1
    14     5     6    1
    15     6     7    2
    16     6     8    1
    17     8     9    1
    18     8    10    1
    19     8    22    1
    20    10    11   am
    21    10    37    1
    22    11    12    2
    23    11    13    1
    24    13    21   ar
    25    13    14   ar
    26    14    15   ar
    27    14    38    1
    28    15    16   ar
    29    16    17    1
    30    16    20   ar
    31    17    19    1
    32    17    18    1
    33    17    39    1
    34    18    19    1
    35    18    40    1
    36    18    41    1
    37    19    42    1
    38    19    43    1
    39    20    21   ar
    40    21    44    1
    41    22    27   ar
    42    22    23   ar
    43    23    24   ar
    44    23    45    1
    45    24    25   ar
    46    24    46    1
    47    25    26   ar
    48    25    47    1
    49    26    27   ar
    50    26    48    1
    51    27    49    1
@<TRIPOS>SUBSTRUCTURE
     1 ZINC000450219577        1 TEMP              0 ****  ****    0 ROOT


##########                                Name:    ZINC000054627026
##########                DOCK_Rotatable_Bonds:                   5
##########                         Heavy_Atoms:                  28
##########                    Molecular_Weight:              370.37
##########                DOCK_Rotatable_Bonds:                   5
##########                       Formal_Charge:         6.85453e-07
##########                     HBond_Acceptors:                   8
##########                        HBond_Donors:                   2
##########                         Heavy_Atoms:                  28
##########                          Grid_Score:          -27.840672
##########                     Grid_vdw_energy:          -28.136492
##########                      Grid_es_energy:            0.295821
##########           Internal_energy_repulsive:            4.902889

@<TRIPOS>MOLECULE
ZINC000054627026
 42 46 1 0 0
SMALL
USER_CHARGES


@<TRIPOS>ATOM
      1 O1         -3.2846    2.7998   53.4728 O.2     1  ZINC000054627026   -0.5200
      2 C2         -2.8621    2.5640   52.3572 C.2     1  ZINC000054627026    0.6100
      3 N3         -3.7138    2.2067   51.3757 N.am    1  ZINC000054627026   -0.6500
      4 C4         -5.0847    2.1014   51.6420 C.ar    1  ZINC000054627026    0.1400
      5 C5         -5.8252    3.2471   51.9252 C.ar    1  ZINC000054627026   -0.0900
      6 C6         -7.1754    3.1574   52.1888 C.ar    1  ZINC000054627026   -0.0900
      7 C7         -7.8039    1.9207   52.1728 C.ar    1  ZINC000054627026    0.0500
      8 N8         -9.1065    1.5064   52.3895 N.pl3   1  ZINC000054627026   -0.5900
      9 C9         -9.1286    0.1442   52.2362 C.2     1  ZINC000054627026    0.3700
     10 C10       -10.3207   -0.7045   52.3797 C.2     1  ZINC000054627026    0.0200
     11 C11       -11.6062   -0.3288   52.1253 C.2     1  ZINC000054627026   -0.1200
     12 C12       -12.4154   -1.4476   52.3938 C.2     1  ZINC000054627026   -0.2200
     13 C13       -11.5963   -2.4420   52.7946 C.2     1  ZINC000054627026   -0.0100
     14 O14       -10.3327   -1.9916   52.7801 O.3     1  ZINC000054627026   -0.1700
     15 N15        -7.9235   -0.2880   51.9413 N.2     1  ZINC000054627026   -0.4600
     16 C16        -7.0644    0.7586   51.8879 C.ar    1  ZINC000054627026    0.0700
     17 C17        -5.6965    0.8620   51.6169 C.ar    1  ZINC000054627026   -0.0900
     18 C18        -1.4184    2.6749   52.0767 C.2     1  ZINC000054627026   -0.1000
     19 C19        -0.4704    3.1433   52.9419 C.2     1  ZINC000054627026    0.1000
     20 N20         0.7143    3.0770   52.2960 N.pl3   1  ZINC000054627026   -0.3100
     21 C21         1.9656    3.4553   52.8032 C.ar    1  ZINC000054627026    0.1300
     22 C22         2.0683    3.9709   54.0882 C.ar    1  ZINC000054627026   -0.1200
     23 C23         3.3023    4.3422   54.5852 C.ar    1  ZINC000054627026   -0.1000
     24 C24         4.4347    4.2013   53.8043 C.ar    1  ZINC000054627026   -0.1100
     25 C25         4.3355    3.6886   52.5238 C.ar    1  ZINC000054627026   -0.1000
     26 C26         3.1050    3.3098   52.0236 C.ar    1  ZINC000054627026   -0.1000
     27 N27         0.4514    2.5565   51.0209 N.2     1  ZINC000054627026   -0.0500
     28 N28        -0.8120    2.3266   50.9285 N.2     1  ZINC000054627026   -0.2000
     29 H29        -3.3773    2.0226   50.4847 H       1  ZINC000054627026    0.4200
     30 H30        -5.3385    4.2110   51.9387 H       1  ZINC000054627026    0.1500
     31 H31        -7.7436    4.0494   52.4080 H       1  ZINC000054627026    0.1300
     32 H32        -9.8622    2.0735   52.6093 H       1  ZINC000054627026    0.4300
     33 H33       -11.9390    0.6404   51.7843 H       1  ZINC000054627026    0.1600
     34 H34       -13.4898   -1.5005   52.2975 H       1  ZINC000054627026    0.1600
     35 H35       -11.9065   -3.4372   53.0772 H       1  ZINC000054627026    0.2100
     36 H36        -5.1197   -0.0230   51.3916 H       1  ZINC000054627026    0.1400
     37 H37        -0.6362    3.4984   53.9482 H       1  ZINC000054627026    0.2100
     38 H38         1.1842    4.0818   54.6984 H       1  ZINC000054627026    0.1400
     39 H39         3.3828    4.7433   55.5847 H       1  ZINC000054627026    0.1400
     40 H40         5.3985    4.4927   54.1948 H       1  ZINC000054627026    0.1400
     41 H41         5.2216    3.5801   51.9161 H       1  ZINC000054627026    0.1400
     42 H42         3.0282    2.9094   51.0235 H       1  ZINC000054627026    0.1400
@<TRIPOS>BOND
     1     1     2    2
     2     2     3   am
     3     2    18    1
     4     3     4    1
     5     3    29    1
     6     4    17   ar
     7     4     5   ar
     8     5     6   ar
     9     5    30    1
    10     6     7   ar
    11     6    31    1
    12     7    16   ar
    13     7     8    1
    14     8     9    1
    15     8    32    1
    16     9    10    1
    17     9    15    2
    18    10    14    1
    19    10    11    2
    20    11    12    1
    21    11    33    1
    22    12    13    2
    23    12    34    1
    24    13    14    1
    25    13    35    1
    26    15    16    1
    27    16    17   ar
    28    17    36    1
    29    18    28    1
    30    18    19    2
    31    19    20    1
    32    19    37    1
    33    20    21    1
    34    20    27    1
    35    21    26   ar
    36    21    22   ar
    37    22    23   ar
    38    22    38    1
    39    23    24   ar
    40    23    39    1
    41    24    25   ar
    42    24    40    1
    43    25    26   ar
    44    25    41    1
    45    26    42    1
    46    27    28    2
@<TRIPOS>SUBSTRUCTURE
     1 ZINC000054627026        1 TEMP              0 ****  ****    0 ROOT


##########                                Name:    ZINC000548281822
##########                DOCK_Rotatable_Bonds:                   6
##########                         Heavy_Atoms:                  24
##########                    Molecular_Weight:             332.406
##########                DOCK_Rotatable_Bonds:                   6
##########                       Formal_Charge:        -5.58794e-08
##########                     HBond_Acceptors:                   8
##########                        HBond_Donors:                   2
##########                         Heavy_Atoms:                  24
##########                          Grid_Score:          -27.816536
##########                     Grid_vdw_energy:          -28.605955
##########                      Grid_es_energy:            0.789418
##########           Internal_energy_repulsive:            6.879810

@<TRIPOS>MOLECULE
ZINC000548281822
 48 50 1 0 0
SMALL
USER_CHARGES


@<TRIPOS>ATOM
      1 C1        -11.9241   -1.8398   52.3050 C.3     1  ZINC000548281822   -0.1700
      2 C2        -11.2882   -0.8877   53.3200 C.3     1  ZINC000548281822    0.2600
      3 H3        -11.9690   -0.0597   53.5174 H       1  ZINC000548281822    0.1400
      4 N4        -11.0227   -1.6096   54.5668 N.am    1  ZINC000548281822   -0.7400
      5 C5        -11.1325   -0.9738   55.7500 C.2     1  ZINC000548281822    0.7100
      6 O6        -11.4504    0.1993   55.7827 O.2     1  ZINC000548281822   -0.5700
      7 N7        -10.8897   -1.6383   56.8972 N.am    1  ZINC000548281822   -0.7400
      8 C8        -11.0107   -0.9477   58.1835 C.3     1  ZINC000548281822    0.1600
      9 H9        -11.1202    0.1233   58.0128 H       1  ZINC000548281822    0.1000
     10 C10       -12.2382   -1.4741   58.9331 C.3     1  ZINC000548281822   -0.1400
     11 C11       -12.5019   -0.5974   60.1622 C.3     1  ZINC000548281822    0.1100
     12 N12       -11.2555   -0.4586   60.9191 N.pl3   1  ZINC000548281822   -0.4600
     13 C13       -11.1039   -0.0494   62.2104 C.2     1  ZINC000548281822   -0.0500
     14 C14        -9.7817   -0.0798   62.4737 C.2     1  ZINC000548281822   -0.0300
     15 N15        -9.1461   -0.4977   61.3669 N.2     1  ZINC000548281822   -0.4900
     16 C16       -10.0208   -0.7262   60.4315 C.2     1  ZINC000548281822    0.2100
     17 C17        -9.7542   -1.2067   59.0243 C.3     1  ZINC000548281822   -0.0500
     18 C18        -9.9939   -0.3522   52.7641 C.2     1  ZINC000548281822    0.1700
     19 N19        -9.5386    0.8715   52.8858 N.2     1  ZINC000548281822   -0.4600
     20 C20        -8.3615    0.8861   52.2355 C.2     1  ZINC000548281822    0.1900
     21 C21        -7.4398    2.0690   52.0858 C.3     1  ZINC000548281822    0.0200
     22 C22        -6.1138    1.6086   51.4769 C.3     1  ZINC000548281822   -0.1400
     23 C23        -8.0884    3.1080   51.1689 C.3     1  ZINC000548281822   -0.1400
     24 C24        -7.1815    2.6913   53.4594 C.3     1  ZINC000548281822   -0.1400
     25 N25        -8.1646   -0.3072   51.7601 N.2     1  ZINC000548281822   -0.3700
     26 O26        -9.0881   -1.0353   52.0577 O.3     1  ZINC000548281822    0.0800
     27 H27       -11.2433   -2.6678   52.1074 H       1  ZINC000548281822    0.0700
     28 H28       -12.8603   -2.2270   52.7070 H       1  ZINC000548281822    0.0900
     29 H29       -12.1217   -1.3027   51.3773 H       1  ZINC000548281822    0.0800
     30 H30       -10.7678   -2.5452   54.5407 H       1  ZINC000548281822    0.4000
     31 H31       -10.6348   -2.5739   56.8711 H       1  ZINC000548281822    0.4000
     32 H32       -13.1059   -1.4461   58.2741 H       1  ZINC000548281822    0.1000
     33 H33       -12.0568   -2.5007   59.2513 H       1  ZINC000548281822    0.0800
     34 H34       -12.8466    0.3859   59.8425 H       1  ZINC000548281822    0.0900
     35 H35       -13.2599   -1.0664   60.7897 H       1  ZINC000548281822    0.1000
     36 H36       -11.8902    0.2430   62.8906 H       1  ZINC000548281822    0.1800
     37 H37        -9.3152    0.1863   63.4107 H       1  ZINC000548281822    0.1700
     38 H38        -9.5334   -2.2741   59.0359 H       1  ZINC000548281822    0.0900
     39 H39        -8.9102   -0.6605   58.6030 H       1  ZINC000548281822    0.1000
     40 H40        -6.2979    1.1652   50.4983 H       1  ZINC000548281822    0.0600
     41 H41        -5.4472    2.4641   51.3687 H       1  ZINC000548281822    0.0700
     42 H42        -5.6517    0.8682   52.1301 H       1  ZINC000548281822    0.0700
     43 H43        -9.0330    3.4361   51.6027 H       1  ZINC000548281822    0.0600
     44 H44        -7.4218    3.9636   51.0607 H       1  ZINC000548281822    0.0700
     45 H45        -8.2725    2.6647   50.1903 H       1  ZINC000548281822    0.0600
     46 H46        -6.7194    1.9511   54.1126 H       1  ZINC000548281822    0.0700
     47 H47        -6.5149    3.5468   53.3511 H       1  ZINC000548281822    0.0700
     48 H48        -8.1261    3.0194   53.8931 H       1  ZINC000548281822    0.0600
@<TRIPOS>BOND
     1     1     2    1
     2     1    27    1
     3     1    28    1
     4     1    29    1
     5     2     3    1
     6     2     4    1
     7     2    18    1
     8     4     5   am
     9     4    30    1
    10     5     6    2
    11     5     7   am
    12     7     8    1
    13     7    31    1
    14     8     9    1
    15     8    17    1
    16     8    10    1
    17    10    11    1
    18    10    32    1
    19    10    33    1
    20    11    12    1
    21    11    34    1
    22    11    35    1
    23    12    16    1
    24    12    13    1
    25    13    14    2
    26    13    36    1
    27    14    15    1
    28    14    37    1
    29    15    16    2
    30    16    17    1
    31    17    38    1
    32    17    39    1
    33    18    26    1
    34    18    19    2
    35    19    20    1
    36    20    21    1
    37    20    25    2
    38    21    22    1
    39    21    23    1
    40    21    24    1
    41    22    40    1
    42    22    41    1
    43    22    42    1
    44    23    43    1
    45    23    44    1
    46    23    45    1
    47    24    46    1
    48    24    47    1
    49    24    48    1
    50    25    26    1
@<TRIPOS>SUBSTRUCTURE
     1 ZINC000548281822        1 TEMP              0 ****  ****    0 ROOT


##########                                Name:    ZINC000461336108
##########                DOCK_Rotatable_Bonds:                   5
##########                         Heavy_Atoms:                  26
##########                    Molecular_Weight:             373.522
##########                DOCK_Rotatable_Bonds:                   5
##########                       Formal_Charge:        -3.42727e-07
##########                     HBond_Acceptors:                   7
##########                        HBond_Donors:                   0
##########                         Heavy_Atoms:                  26
##########                          Grid_Score:          -27.814096
##########                     Grid_vdw_energy:          -28.059467
##########                      Grid_es_energy:            0.245371
##########           Internal_energy_repulsive:           12.657922

@<TRIPOS>MOLECULE
ZINC000461336108
 53 56 1 0 0
SMALL
USER_CHARGES


@<TRIPOS>ATOM
      1 C1         -8.6617   -1.3576   59.7835 C.3     1  ZINC000461336108   -0.1300
      2 C2         -9.7383   -0.9887   60.8063 C.3     1  ZINC000461336108    0.0700
      3 H3        -10.3688   -1.8571   60.9970 H       1  ZINC000461336108    0.0800
      4 C4         -9.0822   -0.5578   62.0875 C.2     1  ZINC000461336108    0.5300
      5 O5         -8.1345   -1.1938   62.4976 O.2     1  ZINC000461336108   -0.5300
      6 N6         -9.4992    0.4979   62.7943 N.am    1  ZINC000461336108   -0.6100
      7 C7         -8.8148    0.8138   64.0504 C.3     1  ZINC000461336108    0.0700
      8 C8        -10.6062    1.3501   62.3698 C.3     1  ZINC000461336108    0.1200
      9 C9        -11.4538    0.6257   61.3224 C.3     1  ZINC000461336108    0.0400
     10 N10       -10.5622    0.1049   60.2741 N.3     1  ZINC000461336108   -0.4300
     11 C11       -11.2863   -0.3149   59.1696 C.2     1  ZINC000461336108    0.3300
     12 N12       -11.7983   -1.5082   58.9801 N.2     1  ZINC000461336108   -0.2500
     13 N13       -12.4061   -1.5480   57.8485 N.2     1  ZINC000461336108   -0.2800
     14 C14       -12.3189   -0.3920   57.2536 C.2     1  ZINC000461336108    0.2000
     15 C15       -12.9006   -0.0323   55.9107 C.3     1  ZINC000461336108   -0.0300
     16 C16       -11.9840   -0.5529   54.8019 C.3     1  ZINC000461336108   -0.0900
     17 C17       -12.1163   -2.0902   54.6663 C.3     1  ZINC000461336108   -0.1200
     18 C18       -11.6556   -2.3457   53.2097 C.3     1  ZINC000461336108   -0.1200
     19 C19       -12.2267   -1.1517   52.4173 C.3     1  ZINC000461336108   -0.1300
     20 C20       -12.4355   -0.0118   53.4296 C.3     1  ZINC000461336108   -0.1200
     21 N21       -11.6068    0.4362   58.0764 N.pl3   1  ZINC000461336108   -0.4900
     22 C22       -11.2538    1.8367   57.8312 C.3     1  ZINC000461336108    0.1700
     23 C23        -9.8590    1.9115   57.2653 C.2     1  ZINC000461336108   -0.2400
     24 C24        -9.5583    1.9784   55.9675 C.2     1  ZINC000461336108   -0.0900
     25 C25        -8.2046    2.0400   55.6849 C.2     1  ZINC000461336108   -0.1400
     26 C26        -7.4061    2.0231   56.7532 C.2     1  ZINC000461336108   -0.2000
     27 S27        -8.3791    1.9315   58.2155 S.3     1  ZINC000461336108    0.1200
     28 H28        -8.0302   -0.4901   59.5918 H       1  ZINC000461336108    0.0800
     29 H29        -8.0518   -2.1715   60.1755 H       1  ZINC000461336108    0.0800
     30 H30        -9.1363   -1.6740   58.8547 H       1  ZINC000461336108    0.0700
     31 H31        -8.0190    0.0891   64.2228 H       1  ZINC000461336108    0.0900
     32 H32        -8.3876    1.8147   63.9897 H       1  ZINC000461336108    0.0700
     33 H33        -9.5284    0.7725   64.8734 H       1  ZINC000461336108    0.0600
     34 H34       -11.2269    1.5932   63.2322 H       1  ZINC000461336108    0.0900
     35 H35       -10.2100    2.2705   61.9407 H       1  ZINC000461336108    0.0900
     36 H36       -11.9888   -0.1997   61.7923 H       1  ZINC000461336108    0.0500
     37 H37       -12.1669    1.3233   60.8830 H       1  ZINC000461336108    0.1100
     38 H38       -13.8870   -0.4847   55.8091 H       1  ZINC000461336108    0.0800
     39 H39       -12.9879    1.0513   55.8311 H       1  ZINC000461336108    0.1000
     40 H40       -10.9494   -0.2731   55.0006 H       1  ZINC000461336108    0.0900
     41 H41       -11.4607   -2.5982   55.3735 H       1  ZINC000461336108    0.0600
     42 H42       -13.1514   -2.4025   54.8044 H       1  ZINC000461336108    0.0600
     43 H43       -10.5674   -2.3575   53.1503 H       1  ZINC000461336108    0.0700
     44 H44       -12.0690   -3.2832   52.8378 H       1  ZINC000461336108    0.0700
     45 H45       -11.5201   -0.8424   51.6472 H       1  ZINC000461336108    0.0700
     46 H46       -13.1786   -1.4263   51.9627 H       1  ZINC000461336108    0.0600
     47 H47       -13.4887    0.2668   53.4663 H       1  ZINC000461336108    0.0700
     48 H48       -11.8302    0.8507   53.1508 H       1  ZINC000461336108    0.0700
     49 H49       -11.9579    2.2697   57.1206 H       1  ZINC000461336108    0.1200
     50 H50       -11.2958    2.3914   58.7685 H       1  ZINC000461336108    0.1000
     51 H51       -10.3137    1.9838   55.1958 H       1  ZINC000461336108    0.1400
     52 H52        -7.8239    2.0971   54.6759 H       1  ZINC000461336108    0.1500
     53 H53        -6.3272    2.0631   56.7247 H       1  ZINC000461336108    0.1700
@<TRIPOS>BOND
     1     1     2    1
     2     1    28    1
     3     1    29    1
     4     1    30    1
     5     2     3    1
     6     2    10    1
     7     2     4    1
     8     4     5    2
     9     4     6   am
    10     6     7    1
    11     6     8    1
    12     7    31    1
    13     7    32    1
    14     7    33    1
    15     8     9    1
    16     8    34    1
    17     8    35    1
    18     9    10    1
    19     9    36    1
    20     9    37    1
    21    10    11    1
    22    11    21    1
    23    11    12    2
    24    12    13    1
    25    13    14    2
    26    14    15    1
    27    14    21    1
    28    15    16    1
    29    15    38    1
    30    15    39    1
    31    16    20    1
    32    16    17    1
    33    16    40    1
    34    17    18    1
    35    17    41    1
    36    17    42    1
    37    18    19    1
    38    18    43    1
    39    18    44    1
    40    19    20    1
    41    19    45    1
    42    19    46    1
    43    20    47    1
    44    20    48    1
    45    21    22    1
    46    22    23    1
    47    22    49    1
    48    22    50    1
    49    23    27    1
    50    23    24    2
    51    24    25    1
    52    24    51    1
    53    25    26    2
    54    25    52    1
    55    26    27    1
    56    26    53    1
@<TRIPOS>SUBSTRUCTURE
     1 ZINC000461336108        1 TEMP              0 ****  ****    0 ROOT


##########                                Name:    ZINC000252489163
##########                DOCK_Rotatable_Bonds:                   6
##########                         Heavy_Atoms:                  25
##########                    Molecular_Weight:             379.403
##########                DOCK_Rotatable_Bonds:                   6
##########                       Formal_Charge:          0.00999963
##########                     HBond_Acceptors:                  10
##########                        HBond_Donors:                   2
##########                         Heavy_Atoms:                  25
##########                          Grid_Score:          -27.777630
##########                     Grid_vdw_energy:          -27.460773
##########                      Grid_es_energy:           -0.316857
##########           Internal_energy_repulsive:           24.098345

@<TRIPOS>MOLECULE
ZINC000252489163
 45 46 1 0 0
SMALL
USER_CHARGES


@<TRIPOS>ATOM
      1 C1        -10.4168    3.9244   60.0232 C.3     1  ZINC000252489163   -0.1100
      2 C2        -10.2808    2.5689   59.3787 C.ar    1  ZINC000252489163   -0.0600
      3 C3        -10.1934    2.4643   58.0045 C.ar    1  ZINC000252489163   -0.1300
      4 C4        -10.0676    1.2148   57.4113 C.ar    1  ZINC000252489163    0.1700
      5 N5         -9.9783    1.1054   56.0190 N.am    1  ZINC000252489163   -0.6800
      6 C6         -8.8313    1.4297   55.3897 C.2     1  ZINC000252489163    0.7100
      7 O7         -7.8743    1.8173   56.0318 O.2     1  ZINC000252489163   -0.5500
      8 N8         -8.7453    1.3242   54.0488 N.am    1  ZINC000252489163   -0.6200
      9 C9         -9.8932    0.8574   53.2594 C.3     1  ZINC000252489163    0.1000
     10 C10        -9.4444   -0.3164   52.3834 C.3     1  ZINC000252489163   -0.1400
     11 C11        -8.2371    0.1102   51.5452 C.3     1  ZINC000252489163   -0.1300
     12 C12        -7.0800    0.4916   52.4715 C.3     1  ZINC000252489163    0.1400
     13 H13        -6.8257   -0.3583   53.1047 H       1  ZINC000252489163    0.0900
     14 N14        -5.9145    0.8691   51.6682 N.am    1  ZINC000252489163   -1.1100
     15 S15        -5.8056    2.3946   51.0330 S.o2    1  ZINC000252489163    2.6100
     16 C16        -4.2288    2.4000   50.1362 C.3     1  ZINC000252489163   -0.6700
     17 O17        -6.8958    2.4749   50.1253 O.2     1  ZINC000252489163   -0.9500
     18 O18        -5.7351    3.2435   52.1705 O.2     1  ZINC000252489163   -0.9500
     19 C19        -7.5039    1.6799   53.3481 C.3     1  ZINC000252489163    0.1100
     20 C20       -10.0303    0.0745   58.2025 C.ar    1  ZINC000252489163   -0.1000
     21 C21       -10.1183    0.1859   59.5766 C.ar    1  ZINC000252489163   -0.1600
     22 C22       -10.0779   -1.0513   60.4362 C.3     1  ZINC000252489163    0.5100
     23 F23        -9.2710   -0.8159   61.5545 F       1  ZINC000252489163   -0.1700
     24 F24       -11.3740   -1.3705   60.8552 F       1  ZINC000252489163   -0.1800
     25 F25        -9.5513   -2.1159   59.6969 F       1  ZINC000252489163   -0.1800
     26 C26       -10.2381    1.4316   60.1644 C.ar    1  ZINC000252489163   -0.0900
     27 H27        -9.4263    4.3277   60.2336 H       1  ZINC000252489163    0.0800
     28 H28       -10.9468    4.5962   59.3480 H       1  ZINC000252489163    0.0700
     29 H29       -10.9758    3.8296   60.9542 H       1  ZINC000252489163    0.0700
     30 H30       -10.2230    3.3531   57.3917 H       1  ZINC000252489163    0.1300
     31 H31       -10.7417    0.7962   55.5067 H       1  ZINC000252489163    0.4100
     32 H32       -10.6885    0.5302   53.9293 H       1  ZINC000252489163    0.0800
     33 H33       -10.2556    1.6679   52.6270 H       1  ZINC000252489163    0.0800
     34 H34        -9.1678   -1.1587   53.0174 H       1  ZINC000252489163    0.0700
     35 H35       -10.2602   -0.6101   51.7228 H       1  ZINC000252489163    0.0900
     36 H36        -7.9310   -0.7154   50.9028 H       1  ZINC000252489163    0.0800
     37 H37        -8.5073    0.9682   50.9296 H       1  ZINC000252489163    0.0800
     38 H38        -5.2066    0.2255   51.5085 H       1  ZINC000252489163    0.4200
     39 H39        -4.2503    1.6362   49.3589 H       1  ZINC000252489163    0.1300
     40 H40        -4.0734    3.3779   49.6805 H       1  ZINC000252489163    0.1300
     41 H41        -3.4152    2.1892   50.8302 H       1  ZINC000252489163    0.1300
     42 H42        -7.6700    2.5558   52.7209 H       1  ZINC000252489163    0.0800
     43 H43        -6.7224    1.8931   54.0773 H       1  ZINC000252489163    0.1100
     44 H44        -9.9330   -0.8985   57.7442 H       1  ZINC000252489163    0.1800
     45 H45       -10.3063    1.5161   61.2389 H       1  ZINC000252489163    0.1300
@<TRIPOS>BOND
     1     1     2    1
     2     1    27    1
     3     1    28    1
     4     1    29    1
     5     2    26   ar
     6     2     3   ar
     7     3     4   ar
     8     3    30    1
     9     4     5    1
    10     4    20   ar
    11     5     6   am
    12     5    31    1
    13     6     7    2
    14     6     8   am
    15     8    19    1
    16     8     9    1
    17     9    10    1
    18     9    32    1
    19     9    33    1
    20    10    11    1
    21    10    34    1
    22    10    35    1
    23    11    12    1
    24    11    36    1
    25    11    37    1
    26    12    13    1
    27    12    14    1
    28    12    19    1
    29    14    15   am
    30    14    38    1
    31    15    16    1
    32    15    17    2
    33    15    18    2
    34    16    39    1
    35    16    40    1
    36    16    41    1
    37    19    42    1
    38    19    43    1
    39    20    21   ar
    40    20    44    1
    41    21    22    1
    42    21    26   ar
    43    22    23    1
    44    22    24    1
    45    22    25    1
    46    26    45    1
@<TRIPOS>SUBSTRUCTURE
     1 ZINC000252489163        1 TEMP              0 ****  ****    0 ROOT


##########                                Name:    ZINC000281092425
##########                DOCK_Rotatable_Bonds:                   8
##########                         Heavy_Atoms:                  23
##########                    Molecular_Weight:             332.304
##########                DOCK_Rotatable_Bonds:                   8
##########                       Formal_Charge:         2.98023e-08
##########                     HBond_Acceptors:                   9
##########                        HBond_Donors:                   2
##########                         Heavy_Atoms:                  23
##########                          Grid_Score:          -27.752119
##########                     Grid_vdw_energy:          -24.622562
##########                      Grid_es_energy:           -3.129557
##########           Internal_energy_repulsive:           23.544436

@<TRIPOS>MOLECULE
ZINC000281092425
 41 42 1 0 0
SMALL
USER_CHARGES


@<TRIPOS>ATOM
      1 O1        -11.8800   -3.7471   57.2397 O.2     1  ZINC000281092425   -0.1800
      2 N2        -12.3836   -3.0513   58.1034 N.pl3   1  ZINC000281092425    0.0400
      3 O3        -13.5877   -2.8676   58.1122 O.2     1  ZINC000281092425   -0.1500
      4 C4        -11.5332   -2.4340   59.1456 C.ar    1  ZINC000281092425   -0.1200
      5 C5        -10.1674   -2.6430   59.1347 C.ar    1  ZINC000281092425    0.0200
      6 C6         -9.3701   -2.0686   60.1058 C.ar    1  ZINC000281092425   -0.2200
      7 C7         -9.9405   -1.2784   61.0960 C.ar    1  ZINC000281092425    0.3000
      8 N8         -9.1348   -0.6972   62.0776 N.pl3   1  ZINC000281092425   -0.7200
      9 C9         -9.4308    0.6529   62.5633 C.3     1  ZINC000281092425    0.1200
     10 C10        -9.9021    0.5800   64.0171 C.3     1  ZINC000281092425   -0.0900
     11 H11       -10.6321   -0.2225   64.1226 H       1  ZINC000281092425    0.0900
     12 C12        -8.7045    0.3031   64.9282 C.3     1  ZINC000281092425    0.0800
     13 O13        -8.5085   -1.1078   65.0417 O.3     1  ZINC000281092425   -0.5700
     14 C14       -10.5463    1.9105   64.4118 C.3     1  ZINC000281092425   -0.1100
     15 H15       -11.2388    2.2481   63.6406 H       1  ZINC000281092425    0.0900
     16 C16       -11.2628    1.7921   65.7845 C.3     1  ZINC000281092425   -0.1600
     17 C17       -11.1726    3.2538   66.2904 C.3     1  ZINC000281092425    0.0500
     18 O18        -9.8937    3.7283   65.8404 O.3     1  ZINC000281092425   -0.3900
     19 C19        -9.4694    2.9811   64.6900 C.3     1  ZINC000281092425    0.0700
     20 C20       -11.3126   -1.0672   61.1082 C.ar    1  ZINC000281092425   -0.2800
     21 C21       -12.1081   -1.6413   60.1294 C.ar    1  ZINC000281092425    0.2300
     22 O22       -13.4515   -1.4360   60.1382 O.3     1  ZINC000281092425   -0.2900
     23 C23       -14.2041   -2.1099   61.1488 C.3     1  ZINC000281092425    0.4100
     24 F24       -14.2877   -1.2997   62.2863 F       1  ZINC000281092425   -0.1900
     25 F25       -15.4916   -2.3773   60.6711 F       1  ZINC000281092425   -0.1900
     26 H26        -9.7223   -3.2569   58.3656 H       1  ZINC000281092425    0.1600
     27 H27        -8.3029   -2.2340   60.0954 H       1  ZINC000281092425    0.1500
     28 H28        -8.3793   -1.1873   62.4379 H       1  ZINC000281092425    0.4100
     29 H29        -8.5316    1.2659   62.5032 H       1  ZINC000281092425    0.0800
     30 H30       -10.2145    1.0963   61.9491 H       1  ZINC000281092425    0.0800
     31 H31        -7.8112    0.7610   64.5033 H       1  ZINC000281092425    0.0500
     32 H32        -8.8941    0.7243   65.9156 H       1  ZINC000281092425    0.0500
     33 H33        -8.3345   -1.5497   64.1994 H       1  ZINC000281092425    0.3800
     34 H34       -12.3006    1.4825   65.6607 H       1  ZINC000281092425    0.0800
     35 H35       -10.7288    1.1128   66.4491 H       1  ZINC000281092425    0.0800
     36 H36       -11.9726    3.8542   65.8571 H       1  ZINC000281092425    0.0600
     37 H37       -11.2249    3.2814   67.3788 H       1  ZINC000281092425    0.0900
     38 H38        -8.5146    2.4970   64.8950 H       1  ZINC000281092425    0.0800
     39 H39        -9.3712    3.6468   63.8324 H       1  ZINC000281092425    0.0700
     40 H40       -11.7587   -0.4534   61.8767 H       1  ZINC000281092425    0.1500
     41 H41       -13.7101   -3.0470   61.4056 H       1  ZINC000281092425    0.1900
@<TRIPOS>BOND
     1     1     2    2
     2     2     3    2
     3     2     4    1
     4     4    21   ar
     5     4     5   ar
     6     5     6   ar
     7     5    26    1
     8     6     7   ar
     9     6    27    1
    10     7     8    1
    11     7    20   ar
    12     8     9    1
    13     8    28    1
    14     9    10    1
    15     9    29    1
    16     9    30    1
    17    10    11    1
    18    10    12    1
    19    10    14    1
    20    12    13    1
    21    12    31    1
    22    12    32    1
    23    13    33    1
    24    14    15    1
    25    14    19    1
    26    14    16    1
    27    16    17    1
    28    16    34    1
    29    16    35    1
    30    17    18    1
    31    17    36    1
    32    17    37    1
    33    18    19    1
    34    19    38    1
    35    19    39    1
    36    20    21   ar
    37    20    40    1
    38    21    22    1
    39    22    23    1
    40    23    24    1
    41    23    25    1
    42    23    41    1
@<TRIPOS>SUBSTRUCTURE
     1 ZINC000281092425        1 TEMP              0 ****  ****    0 ROOT


##########                                Name:    ZINC000542980334
##########                DOCK_Rotatable_Bonds:                   6
##########                         Heavy_Atoms:                  27
##########                    Molecular_Weight:             404.795
##########                DOCK_Rotatable_Bonds:                   6
##########                       Formal_Charge:           0.0300001
##########                     HBond_Acceptors:                  10
##########                        HBond_Donors:                   1
##########                         Heavy_Atoms:                  27
##########                          Grid_Score:          -27.743698
##########                     Grid_vdw_energy:          -27.580606
##########                      Grid_es_energy:           -0.163092
##########           Internal_energy_repulsive:           13.034423

@<TRIPOS>MOLECULE
ZINC000542980334
 44 46 1 0 0
SMALL
USER_CHARGES


@<TRIPOS>ATOM
      1 O1        -13.0067   -2.7466   56.6592 O.2     1  ZINC000542980334   -0.5800
      2 C2        -12.1093   -1.9635   56.4146 C.2     1  ZINC000542980334    0.7100
      3 N3        -11.0857   -1.8200   57.2794 N.am    1  ZINC000542980334   -0.7400
      4 C4        -11.0572   -2.6031   58.5172 C.3     1  ZINC000542980334    0.1800
      5 C5        -11.2531   -1.6857   59.6967 C.ar    1  ZINC000542980334   -0.1400
      6 C6        -12.5087   -1.5419   60.2610 C.ar    1  ZINC000542980334    0.1300
      7 F7        -13.5595   -2.2236   59.7547 F       1  ZINC000542980334   -0.1200
      8 C8        -12.6873   -0.6990   61.3452 C.ar    1  ZINC000542980334   -0.1500
      9 C9        -11.6123   -0.0021   61.8631 C.ar    1  ZINC000542980334   -0.0700
     10 C10       -10.3582   -0.1458   61.2995 C.ar    1  ZINC000542980334   -0.1200
     11 C11       -10.1769   -0.9915   60.2197 C.ar    1  ZINC000542980334    0.0100
     12 Cl12       -8.6015   -1.1717   59.5131 Cl      1  ZINC000542980334   -0.0400
     13 N13       -12.1355   -1.2431   55.2758 N.am    1  ZINC000542980334   -0.6300
     14 C14       -13.2446   -1.3886   54.3233 C.3     1  ZINC000542980334    0.1100
     15 C15       -12.6678   -1.7002   52.9388 C.3     1  ZINC000542980334   -0.1300
     16 C16       -11.6511   -0.6210   52.5595 C.3     1  ZINC000542980334   -0.1300
     17 C17       -10.5035   -0.6206   53.5720 C.3     1  ZINC000542980334    0.1400
     18 H18       -10.0315   -1.6030   53.5874 H       1  ZINC000542980334    0.1100
     19 N19        -9.5149    0.3909   53.1900 N.pl3   1  ZINC000542980334   -0.3400
     20 C20        -9.5419    1.6962   53.5317 C.2     1  ZINC000542980334    0.0600
     21 C21        -8.4559    2.2886   52.9832 C.2     1  ZINC000542980334   -0.2300
     22 C22        -7.7408    1.3119   52.2824 C.2     1  ZINC000542980334   -0.0200
     23 C23        -6.4612    1.5323   51.5175 C.3     1  ZINC000542980334    0.5600
     24 F24        -5.6869    0.3678   51.5588 F       1  ZINC000542980334   -0.1700
     25 F25        -6.7610    1.8461   50.1875 F       1  ZINC000542980334   -0.1700
     26 F26        -5.7477    2.5874   52.0962 F       1  ZINC000542980334   -0.1600
     27 N27        -8.3714    0.1728   52.4108 N.2     1  ZINC000542980334   -0.2300
     28 C28       -11.0587   -0.2927   54.9663 C.3     1  ZINC000542980334    0.1300
     29 H29       -10.3678   -1.1981   57.0823 H       1  ZINC000542980334    0.4000
     30 H30       -11.8562   -3.3442   58.4968 H       1  ZINC000542980334    0.0900
     31 H31       -10.0954   -3.1082   58.6056 H       1  ZINC000542980334    0.0900
     32 H32       -13.6669   -0.5859   61.7858 H       1  ZINC000542980334    0.1500
     33 H33       -11.7520    0.6553   62.7084 H       1  ZINC000542980334    0.1500
     34 H34        -9.5187    0.3994   61.7048 H       1  ZINC000542980334    0.1500
     35 H35       -13.8941   -2.2045   54.6406 H       1  ZINC000542980334    0.0800
     36 H36       -13.8145   -0.4604   54.2813 H       1  ZINC000542980334    0.0800
     37 H37       -12.1755   -2.6725   52.9601 H       1  ZINC000542980334    0.0800
     38 H38       -13.4730   -1.7157   52.2043 H       1  ZINC000542980334    0.0900
     39 H39       -11.2572   -0.8269   51.5642 H       1  ZINC000542980334    0.0800
     40 H40       -12.1384    0.3540   52.5625 H       1  ZINC000542980334    0.0800
     41 H41       -10.2954    2.1811   54.1345 H       1  ZINC000542980334    0.1900
     42 H42        -8.1889    3.3314   53.0706 H       1  ZINC000542980334    0.1600
     43 H43       -11.4488    0.7251   54.9743 H       1  ZINC000542980334    0.0800
     44 H44       -10.2649   -0.3878   55.7073 H       1  ZINC000542980334    0.1100
@<TRIPOS>BOND
     1     1     2    2
     2     2     3   am
     3     2    13   am
     4     3     4    1
     5     3    29    1
     6     4     5    1
     7     4    30    1
     8     4    31    1
     9     5    11   ar
    10     5     6   ar
    11     6     7    1
    12     6     8   ar
    13     8     9   ar
    14     8    32    1
    15     9    10   ar
    16     9    33    1
    17    10    11   ar
    18    10    34    1
    19    11    12    1
    20    13    28    1
    21    13    14    1
    22    14    15    1
    23    14    35    1
    24    14    36    1
    25    15    16    1
    26    15    37    1
    27    15    38    1
    28    16    17    1
    29    16    39    1
    30    16    40    1
    31    17    18    1
    32    17    19    1
    33    17    28    1
    34    19    27    1
    35    19    20    1
    36    20    21    2
    37    20    41    1
    38    21    22    1
    39    21    42    1
    40    22    23    1
    41    22    27    2
    42    23    24    1
    43    23    25    1
    44    23    26    1
    45    28    43    1
    46    28    44    1
@<TRIPOS>SUBSTRUCTURE
     1 ZINC000542980334        1 TEMP              0 ****  ****    0 ROOT


##########                                Name:    ZINC001058772245
##########                DOCK_Rotatable_Bonds:                  11
##########                         Heavy_Atoms:                  22
##########                    Molecular_Weight:             335.375
##########                DOCK_Rotatable_Bonds:                  11
##########                       Formal_Charge:          0.00999964
##########                     HBond_Acceptors:                   9
##########                        HBond_Donors:                   2
##########                         Heavy_Atoms:                  22
##########                          Grid_Score:          -27.736303
##########                     Grid_vdw_energy:          -26.757477
##########                      Grid_es_energy:           -0.978826
##########           Internal_energy_repulsive:           61.370949

@<TRIPOS>MOLECULE
ZINC001058772245
 41 41 1 0 0
SMALL
USER_CHARGES


@<TRIPOS>ATOM
      1 C1        -15.0093   -3.5137   58.6325 C.3     1  ZINC001058772245   -0.1700
      2 C2        -14.5848   -2.1382   59.1507 C.3     1  ZINC001058772245   -0.1400
      3 C3        -15.6878   -1.5672   60.0441 C.3     1  ZINC001058772245   -0.1500
      4 C4        -13.3124   -2.2721   59.9469 C.2     1  ZINC001058772245    0.5300
      5 O5        -13.3420   -2.1861   61.1563 O.2     1  ZINC001058772245   -0.5200
      6 N6        -12.1415   -2.4875   59.3151 N.am    1  ZINC001058772245   -0.5900
      7 C7        -12.1059   -2.5916   57.8542 C.3     1  ZINC001058772245    0.0800
      8 C8        -10.8580   -3.3677   57.4285 C.3     1  ZINC001058772245    0.0400
      9 O9        -10.8863   -3.5772   56.0153 O.3     1  ZINC001058772245   -0.5700
     10 C10       -10.9046   -2.6177   60.0892 C.3     1  ZINC001058772245    0.1100
     11 C11       -10.1055   -1.3163   59.9964 C.3     1  ZINC001058772245    0.1000
     12 N12        -9.4876   -1.0292   61.2933 N.am    1  ZINC001058772245   -0.7100
     13 C13        -9.9936   -0.0598   62.0810 C.2     1  ZINC001058772245    0.6000
     14 O14       -10.9643    0.5758   61.7159 O.2     1  ZINC001058772245   -0.5300
     15 C15        -9.3713    0.2301   63.3839 C.2     1  ZINC001058772245    0.0000
     16 C16        -9.3797    1.4578   63.9504 C.2     1  ZINC001058772245   -0.2200
     17 S17        -8.5609    1.3796   65.4489 S.3     1  ZINC001058772245    0.2300
     18 C18        -8.2548   -0.2865   65.2330 C.2     1  ZINC001058772245    0.0000
     19 N19        -8.7508   -0.6964   64.1190 N.2     1  ZINC001058772245   -0.4400
     20 C20       -14.3493   -1.1977   57.9672 C.3     1  ZINC001058772245    0.2900
     21 F21       -15.5637   -0.6193   57.5823 F       1  ZINC001058772245   -0.1900
     22 F22       -13.4519   -0.1919   58.3420 F       1  ZINC001058772245   -0.2000
     23 H23       -15.7425   -3.3913   57.8353 H       1  ZINC001058772245    0.0800
     24 H24       -14.1373   -4.0414   58.2461 H       1  ZINC001058772245    0.0700
     25 H25       -15.4505   -4.0886   59.4468 H       1  ZINC001058772245    0.0900
     26 H26       -15.6776   -2.0793   61.0062 H       1  ZINC001058772245    0.0800
     27 H27       -15.5158   -0.5018   60.1977 H       1  ZINC001058772245    0.0700
     28 H28       -16.6558   -1.7136   59.5648 H       1  ZINC001058772245    0.0900
     29 H29       -12.9960   -3.1152   57.5055 H       1  ZINC001058772245    0.0900
     30 H30       -12.0783   -1.5924   57.4194 H       1  ZINC001058772245    0.1200
     31 H31        -9.9675   -2.7976   57.6936 H       1  ZINC001058772245    0.0600
     32 H32       -10.8378   -4.3310   57.9382 H       1  ZINC001058772245    0.0700
     33 H33       -10.9241   -2.7614   55.4975 H       1  ZINC001058772245    0.3800
     34 H34       -11.1482   -2.8210   61.1319 H       1  ZINC001058772245    0.1000
     35 H35       -10.3099   -3.4386   59.6883 H       1  ZINC001058772245    0.0900
     36 H36        -9.3287   -1.4200   59.2389 H       1  ZINC001058772245    0.0700
     37 H37       -10.7728   -0.4989   59.7230 H       1  ZINC001058772245    0.0700
     38 H38        -8.7142   -1.5367   61.5850 H       1  ZINC001058772245    0.4100
     39 H39        -9.8299    2.3428   63.5257 H       1  ZINC001058772245    0.1900
     40 H40        -7.7220   -0.9101   65.9355 H       1  ZINC001058772245    0.2100
     41 H41       -13.9346   -1.7617   57.1317 H       1  ZINC001058772245    0.1200
@<TRIPOS>BOND
     1     1     2    1
     2     1    23    1
     3     1    24    1
     4     1    25    1
     5     2     3    1
     6     2     4    1
     7     2    20    1
     8     3    26    1
     9     3    27    1
    10     3    28    1
    11     4     5    2
    12     4     6   am
    13     6     7    1
    14     6    10    1
    15     7     8    1
    16     7    29    1
    17     7    30    1
    18     8     9    1
    19     8    31    1
    20     8    32    1
    21     9    33    1
    22    10    11    1
    23    10    34    1
    24    10    35    1
    25    11    12    1
    26    11    36    1
    27    11    37    1
    28    12    13   am
    29    12    38    1
    30    13    14    2
    31    13    15    1
    32    15    19    1
    33    15    16    2
    34    16    17    1
    35    16    39    1
    36    17    18    1
    37    18    19    2
    38    18    40    1
    39    20    21    1
    40    20    22    1
    41    20    41    1
@<TRIPOS>SUBSTRUCTURE
     1 ZINC001058772245        1 TEMP              0 ****  ****    0 ROOT


##########                                Name:    ZINC000942890482
##########                DOCK_Rotatable_Bonds:                   8
##########                         Heavy_Atoms:                  25
##########                    Molecular_Weight:             346.445
##########                DOCK_Rotatable_Bonds:                   8
##########                       Formal_Charge:          -0.0100004
##########                     HBond_Acceptors:                   5
##########                        HBond_Donors:                   0
##########                         Heavy_Atoms:                  25
##########                          Grid_Score:          -27.720421
##########                     Grid_vdw_energy:          -28.746176
##########                      Grid_es_energy:            1.025756
##########           Internal_energy_repulsive:           24.783026

@<TRIPOS>MOLECULE
ZINC000942890482
 52 54 1 0 0
SMALL
USER_CHARGES


@<TRIPOS>ATOM
      1 C1        -14.1095   -4.7550   56.7713 C.3     1  ZINC000942890482   -0.1700
      2 C2        -14.1181   -3.4031   57.4876 C.3     1  ZINC000942890482    0.1000
      3 N3        -13.2036   -2.4835   56.8060 N.am    1  ZINC000942890482   -0.6000
      4 C4        -13.5498   -1.9446   55.6201 C.2     1  ZINC000942890482    0.5700
      5 O5        -14.6209   -2.2217   55.1161 O.2     1  ZINC000942890482   -0.5100
      6 C6        -12.6279   -1.0175   54.9328 C.ar    1  ZINC000942890482   -0.1400
      7 C7        -12.7158    0.3569   55.1630 C.ar    1  ZINC000942890482   -0.0600
      8 C8        -11.8525    1.2177   54.5193 C.ar    1  ZINC000942890482   -0.1600
      9 C9        -10.8984    0.7210   53.6447 C.ar    1  ZINC000942890482    0.1300
     10 F10       -10.0549    1.5689   53.0164 F       1  ZINC000942890482   -0.1300
     11 C11       -10.8065   -0.6431   53.4127 C.ar    1  ZINC000942890482   -0.1600
     12 C12       -11.6613   -1.5130   54.0546 C.ar    1  ZINC000942890482   -0.0100
     13 C13       -11.5602   -2.9951   53.8017 C.3     1  ZINC000942890482   -0.1200
     14 C14       -11.9129   -2.1498   57.4134 C.3     1  ZINC000942890482    0.1400
     15 H15       -11.3190   -1.5257   56.7456 H       1  ZINC000942890482    0.1100
     16 C16       -11.1372   -3.4332   57.8116 C.3     1  ZINC000942890482   -0.1500
     17 C17       -10.2396   -2.9491   58.9698 C.3     1  ZINC000942890482    0.1100
     18 N18       -10.8604   -1.7381   59.5264 N.am    1  ZINC000942890482   -0.6200
     19 C19       -10.3704   -1.0001   60.5421 C.2     1  ZINC000942890482    0.5300
     20 O20        -9.3297   -1.3194   61.0769 O.2     1  ZINC000942890482   -0.5400
     21 C21       -11.1157    0.2221   61.0134 C.3     1  ZINC000942890482   -0.1300
     22 C22       -10.2117    1.0485   61.9304 C.3     1  ZINC000942890482   -0.0700
     23 C23       -10.1626    0.4015   63.3160 C.3     1  ZINC000942890482   -0.1600
     24 C24        -8.8323   -0.2063   63.7650 C.3     1  ZINC000942890482   -0.1800
     25 C25        -9.3276    1.0986   64.3920 C.3     1  ZINC000942890482   -0.1800
     26 C26       -12.1072   -1.4634   58.7884 C.3     1  ZINC000942890482    0.0900
     27 H27       -14.4316   -4.6212   55.7386 H       1  ZINC000942890482    0.0600
     28 H28       -13.1008   -5.1679   56.7865 H       1  ZINC000942890482    0.0600
     29 H29       -14.7898   -5.4392   57.2784 H       1  ZINC000942890482    0.0700
     30 H30       -15.1267   -2.9902   57.4723 H       1  ZINC000942890482    0.0900
     31 H31       -13.7959   -3.5369   58.5202 H       1  ZINC000942890482    0.0900
     32 H32       -13.4589    0.7449   55.8439 H       1  ZINC000942890482    0.1400
     33 H33       -11.9198    2.2810   54.6964 H       1  ZINC000942890482    0.1400
     34 H34       -10.0614   -1.0249   52.7304 H       1  ZINC000942890482    0.1400
     35 H35       -10.8130   -3.4272   54.4674 H       1  ZINC000942890482    0.0900
     36 H36       -12.5271   -3.4624   53.9887 H       1  ZINC000942890482    0.0700
     37 H37       -11.2674   -3.1678   52.7660 H       1  ZINC000942890482    0.0700
     38 H38       -11.8234   -4.2081   58.1534 H       1  ZINC000942890482    0.1000
     39 H39       -10.5322   -3.7922   56.9790 H       1  ZINC000942890482    0.0900
     40 H40       -10.1773   -3.7201   59.7378 H       1  ZINC000942890482    0.0700
     41 H41        -9.2433   -2.7158   58.5941 H       1  ZINC000942890482    0.0700
     42 H42       -11.4078    0.8237   60.1528 H       1  ZINC000942890482    0.0900
     43 H43       -12.0065   -0.0846   61.5616 H       1  ZINC000942890482    0.0900
     44 H44        -9.2063    1.0864   61.5112 H       1  ZINC000942890482    0.0700
     45 H45       -10.6083    2.0602   62.0157 H       1  ZINC000942890482    0.0700
     46 H46       -11.0776   -0.0984   63.6341 H       1  ZINC000942890482    0.1000
     47 H47        -8.8717   -1.1062   64.3787 H       1  ZINC000942890482    0.0900
     48 H48        -7.9920   -0.1451   63.0734 H       1  ZINC000942890482    0.0900
     49 H49        -8.8132    2.0181   64.1127 H       1  ZINC000942890482    0.0900
     50 H50        -9.6929    1.0570   65.4180 H       1  ZINC000942890482    0.0900
     51 H51       -12.2442   -0.3895   58.6616 H       1  ZINC000942890482    0.0800
     52 H52       -12.9604   -1.8965   59.3106 H       1  ZINC000942890482    0.0900
@<TRIPOS>BOND
     1     1     2    1
     2     1    27    1
     3     1    28    1
     4     1    29    1
     5     2     3    1
     6     2    30    1
     7     2    31    1
     8     3     4   am
     9     3    14    1
    10     4     5    2
    11     4     6    1
    12     6    12   ar
    13     6     7   ar
    14     7     8   ar
    15     7    32    1
    16     8     9   ar
    17     8    33    1
    18     9    10    1
    19     9    11   ar
    20    11    12   ar
    21    11    34    1
    22    12    13    1
    23    13    35    1
    24    13    36    1
    25    13    37    1
    26    14    15    1
    27    14    26    1
    28    14    16    1
    29    16    17    1
    30    16    38    1
    31    16    39    1
    32    17    18    1
    33    17    40    1
    34    17    41    1
    35    18    19   am
    36    18    26    1
    37    19    20    2
    38    19    21    1
    39    21    22    1
    40    21    42    1
    41    21    43    1
    42    22    23    1
    43    22    44    1
    44    22    45    1
    45    23    25    1
    46    23    24    1
    47    23    46    1
    48    24    25    1
    49    24    47    1
    50    24    48    1
    51    25    49    1
    52    25    50    1
    53    26    51    1
    54    26    52    1
@<TRIPOS>SUBSTRUCTURE
     1 ZINC000942890482        1 TEMP              0 ****  ****    0 ROOT


##########                                Name:    ZINC000962855438
##########                DOCK_Rotatable_Bonds:                   7
##########                         Heavy_Atoms:                  27
##########                    Molecular_Weight:             370.448
##########                DOCK_Rotatable_Bonds:                   7
##########                       Formal_Charge:           0.0300005
##########                     HBond_Acceptors:                   6
##########                        HBond_Donors:                   2
##########                         Heavy_Atoms:                  27
##########                          Grid_Score:          -27.701633
##########                     Grid_vdw_energy:          -26.658241
##########                      Grid_es_energy:           -1.043392
##########           Internal_energy_repulsive:            8.392439

@<TRIPOS>MOLECULE
ZINC000962855438
 53 56 1 0 0
SMALL
USER_CHARGES


@<TRIPOS>ATOM
      1 C1         -7.1567   -0.2882   51.5570 C.3     1  ZINC000962855438   -0.1100
      2 C2         -7.8455    1.0275   51.8133 C.2     1  ZINC000962855438   -0.1700
      3 C3         -9.1901    1.0500   52.4092 C.2     1  ZINC000962855438    0.5600
      4 O4         -9.6636    2.0990   52.8021 O.2     1  ZINC000962855438   -0.5400
      5 N5         -9.8974   -0.0919   52.5199 N.am    1  ZINC000962855438   -0.7100
      6 C6        -11.2359   -0.0698   53.1150 C.3     1  ZINC000962855438    0.1500
      7 H7        -11.8494    0.7093   52.6627 H       1  ZINC000962855438    0.1200
      8 C8        -11.1573    0.1075   54.6519 C.3     1  ZINC000962855438    0.1000
      9 N9        -12.4080   -0.4814   55.1641 N.am    1  ZINC000962855438   -0.6100
     10 C10       -12.9997   -0.1725   56.3350 C.2     1  ZINC000962855438    0.5800
     11 O11       -14.0348   -0.7233   56.6570 O.2     1  ZINC000962855438   -0.5200
     12 C12       -12.3915    0.8339   57.2260 C.ar    1  ZINC000962855438   -0.1500
     13 C13       -12.7020    2.1847   57.0688 C.ar    1  ZINC000962855438   -0.0600
     14 C14       -12.1346    3.1273   57.8991 C.ar    1  ZINC000962855438   -0.1500
     15 C15       -11.2501    2.7338   58.8910 C.ar    1  ZINC000962855438   -0.0500
     16 C16       -10.9344    1.4033   59.0530 C.ar    1  ZINC000962855438   -0.1800
     17 C17       -11.5020    0.4322   58.2391 C.ar    1  ZINC000962855438    0.1600
     18 O18       -11.0737   -0.8109   58.5814 O.3     1  ZINC000962855438   -0.2800
     19 C19        -9.8634   -0.7007   59.3496 C.3     1  ZINC000962855438    0.0700
     20 H20        -8.9892   -0.7277   58.6991 H       1  ZINC000962855438    0.0900
     21 C21        -9.7871   -1.8078   60.4029 C.3     1  ZINC000962855438   -0.1500
     22 C22       -10.0116    0.6872   60.0206 C.3     1  ZINC000962855438   -0.1100
     23 C23       -12.9033   -1.4607   54.1858 C.3     1  ZINC000962855438    0.0700
     24 C24       -11.9208   -1.4568   52.9951 C.3     1  ZINC000962855438    0.0900
     25 H25       -12.4587   -1.5422   52.0510 H       1  ZINC000962855438    0.0900
     26 O26       -10.9633   -2.5096   53.1264 O.3     1  ZINC000962855438   -0.5600
     27 C27        -7.2374    2.1683   51.5007 C.2     1  ZINC000962855438   -0.0600
     28 C28        -7.5627    3.6440   51.5953 C.3     1  ZINC000962855438   -0.1000
     29 C29        -6.5999    3.8604   50.4173 C.3     1  ZINC000962855438   -0.1400
     30 C30        -5.9086    2.5712   50.8974 C.3     1  ZINC000962855438   -0.1100
     31 H31        -7.4073   -0.6406   50.5565 H       1  ZINC000962855438    0.0700
     32 H32        -6.0777   -0.1548   51.6357 H       1  ZINC000962855438    0.0700
     33 H33        -7.4870   -1.0207   52.2936 H       1  ZINC000962855438    0.0700
     34 H34        -9.5201   -0.9284   52.2055 H       1  ZINC000962855438    0.4100
     35 H35       -10.2951   -0.4261   55.0518 H       1  ZINC000962855438    0.0800
     36 H36       -11.1028    1.1653   54.9095 H       1  ZINC000962855438    0.0900
     37 H37       -13.3886    2.4928   56.2943 H       1  ZINC000962855438    0.1400
     38 H38       -12.3789    4.1722   57.7765 H       1  ZINC000962855438    0.1400
     39 H39       -10.8060    3.4743   59.5397 H       1  ZINC000962855438    0.1300
     40 H40        -9.7776   -2.7793   59.9090 H       1  ZINC000962855438    0.0700
     41 H41        -8.8758   -1.6893   60.9891 H       1  ZINC000962855438    0.0800
     42 H42       -10.6534   -1.7432   61.0613 H       1  ZINC000962855438    0.0700
     43 H43        -9.0490    1.1946   60.0829 H       1  ZINC000962855438    0.1000
     44 H44       -10.4672    0.5965   61.0067 H       1  ZINC000962855438    0.1000
     45 H45       -12.9352   -2.4522   54.6374 H       1  ZINC000962855438    0.0800
     46 H46       -13.8983   -1.1740   53.8454 H       1  ZINC000962855438    0.0800
     47 H47       -11.3391   -3.3962   53.0382 H       1  ZINC000962855438    0.3900
     48 H48        -8.6006    3.8775   51.3582 H       1  ZINC000962855438    0.0900
     49 H49        -7.2261    4.1057   52.5236 H       1  ZINC000962855438    0.1000
     50 H50        -7.0737    3.7729   49.4396 H       1  ZINC000962855438    0.0900
     51 H51        -5.9798    4.7517   50.5135 H       1  ZINC000962855438    0.0800
     52 H52        -5.1254    2.7455   51.6353 H       1  ZINC000962855438    0.1000
     53 H53        -5.5868    1.9205   50.0842 H       1  ZINC000962855438    0.0800
@<TRIPOS>BOND
     1     1     2    1
     2     1    31    1
     3     1    32    1
     4     1    33    1
     5     2     3    1
     6     2    27    2
     7     3     4    2
     8     3     5   am
     9     5     6    1
    10     5    34    1
    11     6     7    1
    12     6    24    1
    13     6     8    1
    14     8     9    1
    15     8    35    1
    16     8    36    1
    17     9    10   am
    18     9    23    1
    19    10    11    2
    20    10    12    1
    21    12    17   ar
    22    12    13   ar
    23    13    14   ar
    24    13    37    1
    25    14    15   ar
    26    14    38    1
    27    15    16   ar
    28    15    39    1
    29    16    22    1
    30    16    17   ar
    31    17    18    1
    32    18    19    1
    33    19    20    1
    34    19    21    1
    35    19    22    1
    36    21    40    1
    37    21    41    1
    38    21    42    1
    39    22    43    1
    40    22    44    1
    41    23    24    1
    42    23    45    1
    43    23    46    1
    44    24    25    1
    45    24    26    1
    46    26    47    1
    47    27    30    1
    48    27    28    1
    49    28    29    1
    50    28    48    1
    51    28    49    1
    52    29    30    1
    53    29    50    1
    54    29    51    1
    55    30    52    1
    56    30    53    1
@<TRIPOS>SUBSTRUCTURE
     1 ZINC000962855438        1 TEMP              0 ****  ****    0 ROOT


##########                                Name:    ZINC001064463188
##########                DOCK_Rotatable_Bonds:                   6
##########                         Heavy_Atoms:                  25
##########                    Molecular_Weight:             342.441
##########                DOCK_Rotatable_Bonds:                   6
##########                       Formal_Charge:          -0.0100004
##########                     HBond_Acceptors:                   6
##########                        HBond_Donors:                   0
##########                         Heavy_Atoms:                  25
##########                          Grid_Score:          -27.687195
##########                     Grid_vdw_energy:          -26.640894
##########                      Grid_es_energy:           -1.046300
##########           Internal_energy_repulsive:           19.667118

@<TRIPOS>MOLECULE
ZINC001064463188
 51 54 1 0 0
SMALL
USER_CHARGES


@<TRIPOS>ATOM
      1 C1         -8.0823   -0.0320   51.5609 C.3     1  ZINC001064463188    0.0400
      2 O2         -9.3323   -0.5758   51.9897 O.3     1  ZINC001064463188   -0.3000
      3 C3         -9.7430   -0.2612   53.2422 C.ar    1  ZINC001064463188    0.3900
      4 C4         -9.1570    0.7984   53.9329 C.ar    1  ZINC001064463188   -0.2800
      5 C5         -9.6071    1.0839   55.2084 C.ar    1  ZINC001064463188    0.2000
      6 N6        -10.5748    0.3479   55.7333 N.ar    1  ZINC001064463188   -0.5800
      7 C7        -11.1131   -0.6534   55.0529 C.ar    1  ZINC001064463188    0.5300
      8 N8        -12.1230   -1.3994   55.6352 N.3     1  ZINC001064463188   -0.4500
      9 C9        -13.3125   -1.4224   54.7872 C.3     1  ZINC001064463188    0.0700
     10 C10       -14.5712   -1.2099   55.6368 C.3     1  ZINC001064463188   -0.1200
     11 C11       -14.8281   -2.3743   56.5743 C.3     1  ZINC001064463188    0.1400
     12 H12       -15.6943   -2.1624   57.2010 H       1  ZINC001064463188    0.0900
     13 C13       -15.0472   -3.6792   55.8061 C.3     1  ZINC001064463188   -0.1300
     14 C14       -13.6356   -4.2746   55.6602 C.3     1  ZINC001064463188   -0.1300
     15 C15       -12.7763   -3.5281   56.6865 C.3     1  ZINC001064463188    0.1200
     16 H16       -12.3449   -4.2390   57.3912 H       1  ZINC001064463188    0.0900
     17 C17       -11.6471   -2.7661   55.9758 C.3     1  ZINC001064463188    0.0600
     18 N18       -13.6141   -2.5459   57.4253 N.am    1  ZINC001064463188   -0.6000
     19 C19       -13.3305   -1.9488   58.5998 C.2     1  ZINC001064463188    0.5800
     20 O20       -14.1174   -1.1592   59.0862 O.2     1  ZINC001064463188   -0.5400
     21 C21       -12.0692   -2.2519   59.2935 C.2     1  ZINC001064463188   -0.2200
     22 C22       -11.2091   -1.2750   59.5665 C.2     1  ZINC001064463188    0.0000
     23 C23       -11.5266    0.1425   59.1653 C.3     1  ZINC001064463188   -0.1300
     24 C24        -9.9169   -1.5855   60.2771 C.3     1  ZINC001064463188   -0.1200
     25 C25        -8.6350   -0.9693   59.7134 C.3     1  ZINC001064463188   -0.1900
     26 C26        -9.2271   -0.4405   61.0214 C.3     1  ZINC001064463188   -0.1600
     27 N27       -10.7128   -0.9543   53.8265 N.ar    1  ZINC001064463188   -0.5900
     28 H28        -7.2893   -0.3770   52.2245 H       1  ZINC001064463188    0.0600
     29 H29        -7.8730   -0.3607   50.5430 H       1  ZINC001064463188    0.1000
     30 H30        -8.1311    1.0566   51.5884 H       1  ZINC001064463188    0.0600
     31 H31        -8.3688    1.3829   53.4818 H       1  ZINC001064463188    0.1500
     32 H32        -9.1740    1.8979   55.7707 H       1  ZINC001064463188    0.1800
     33 H33       -13.2409   -0.6294   54.0429 H       1  ZINC001064463188    0.0800
     34 H34       -13.3767   -2.3856   54.2809 H       1  ZINC001064463188    0.0600
     35 H35       -14.4519   -0.3005   56.2256 H       1  ZINC001064463188    0.0800
     36 H36       -15.4294   -1.0917   54.9751 H       1  ZINC001064463188    0.0800
     37 H37       -15.6884   -4.3531   56.3742 H       1  ZINC001064463188    0.0800
     38 H38       -15.4787   -3.4768   54.8258 H       1  ZINC001064463188    0.0900
     39 H39       -13.6503   -5.3414   55.8838 H       1  ZINC001064463188    0.0800
     40 H40       -13.2555   -4.1038   54.6530 H       1  ZINC001064463188    0.0800
     41 H41       -11.3809   -3.2836   55.0541 H       1  ZINC001064463188    0.0700
     42 H42       -10.7767   -2.7099   56.6296 H       1  ZINC001064463188    0.0900
     43 H43       -11.8417   -3.2678   59.5810 H       1  ZINC001064463188    0.1200
     44 H44       -12.0643    0.6373   59.9742 H       1  ZINC001064463188    0.0800
     45 H45       -10.5997    0.6793   58.9636 H       1  ZINC001064463188    0.0800
     46 H46       -12.1455    0.1362   58.2681 H       1  ZINC001064463188    0.0700
     47 H47        -9.8475   -2.5826   60.7121 H       1  ZINC001064463188    0.1400
     48 H48        -7.7218   -1.5611   59.7774 H       1  ZINC001064463188    0.1000
     49 H49        -8.7262   -0.3393   58.8287 H       1  ZINC001064463188    0.1000
     50 H50        -9.7078    0.5374   60.9970 H       1  ZINC001064463188    0.0900
     51 H51        -8.7035   -0.6843   61.9457 H       1  ZINC001064463188    0.1000
@<TRIPOS>BOND
     1     1     2    1
     2     1    28    1
     3     1    29    1
     4     1    30    1
     5     2     3    1
     6     3    27   ar
     7     3     4   ar
     8     4     5   ar
     9     4    31    1
    10     5     6   ar
    11     5    32    1
    12     6     7   ar
    13     7     8    1
    14     7    27   ar
    15     8    17    1
    16     8     9    1
    17     9    10    1
    18     9    33    1
    19     9    34    1
    20    10    11    1
    21    10    35    1
    22    10    36    1
    23    11    12    1
    24    11    18    1
    25    11    13    1
    26    13    14    1
    27    13    37    1
    28    13    38    1
    29    14    15    1
    30    14    39    1
    31    14    40    1
    32    15    16    1
    33    15    17    1
    34    15    18    1
    35    17    41    1
    36    17    42    1
    37    18    19   am
    38    19    20    2
    39    19    21    1
    40    21    22    2
    41    21    43    1
    42    22    23    1
    43    22    24    1
    44    23    44    1
    45    23    45    1
    46    23    46    1
    47    24    26    1
    48    24    25    1
    49    24    47    1
    50    25    26    1
    51    25    48    1
    52    25    49    1
    53    26    50    1
    54    26    51    1
@<TRIPOS>SUBSTRUCTURE
     1 ZINC001064463188        1 TEMP              0 ****  ****    0 ROOT


##########                                Name:    ZINC001074839487
##########                DOCK_Rotatable_Bonds:                   7
##########                         Heavy_Atoms:                  25
##########                    Molecular_Weight:             344.454
##########                DOCK_Rotatable_Bonds:                   7
##########                       Formal_Charge:          -0.0500005
##########                     HBond_Acceptors:                   5
##########                        HBond_Donors:                   1
##########                         Heavy_Atoms:                  25
##########                          Grid_Score:          -27.680037
##########                     Grid_vdw_energy:          -27.368967
##########                      Grid_es_energy:           -0.311070
##########           Internal_energy_repulsive:           89.227997

@<TRIPOS>MOLECULE
ZINC001074839487
 53 55 1 0 0
SMALL
USER_CHARGES


@<TRIPOS>ATOM
      1 C1        -10.4008    0.5532   63.2590 C.3     1  ZINC001074839487   -0.1500
      2 C2         -9.8855    0.0696   61.9019 C.3     1  ZINC001074839487   -0.1300
      3 C3        -10.6517    0.7785   60.7833 C.3     1  ZINC001074839487   -0.1100
      4 C4        -10.2035    0.2262   59.4287 C.3     1  ZINC001074839487   -0.1400
      5 C5        -10.9150    0.9651   58.3247 C.2     1  ZINC001074839487    0.5100
      6 O6        -11.8829    1.6502   58.5792 O.2     1  ZINC001074839487   -0.5400
      7 N7        -10.4758    0.8647   57.0545 N.am    1  ZINC001074839487   -0.7300
      8 C8        -11.1685    1.5815   55.9810 C.3     1  ZINC001074839487    0.1400
      9 H9        -11.9226    2.2401   56.4119 H       1  ZINC001074839487    0.0900
     10 C10       -10.1576    2.4136   55.1885 C.3     1  ZINC001074839487   -0.1500
     11 C11        -9.0804    1.4889   54.6132 C.3     1  ZINC001074839487    0.0700
     12 N12        -9.7341    0.4297   53.8325 N.am    1  ZINC001074839487   -0.6000
     13 C13        -9.3756    0.1981   52.5540 C.2     1  ZINC001074839487    0.5600
     14 O14        -9.9239   -0.6812   51.9188 O.2     1  ZINC001074839487   -0.5200
     15 C15        -8.3152    1.0135   51.9244 C.ar    1  ZINC001074839487   -0.1300
     16 C16        -8.6480    2.1660   51.2111 C.ar    1  ZINC001074839487   -0.1000
     17 C17        -7.6540    2.9236   50.6252 C.ar    1  ZINC001074839487   -0.1000
     18 C18        -6.3319    2.5428   50.7438 C.ar    1  ZINC001074839487   -0.1100
     19 C19        -5.0452    3.1461   50.2293 C.3     1  ZINC001074839487    0.0900
     20 O20        -4.0591    2.1007   50.3067 O.3     1  ZINC001074839487   -0.3600
     21 C21        -4.4905    1.2621   51.3940 C.3     1  ZINC001074839487    0.0900
     22 C22        -5.9944    1.3976   51.4517 C.ar    1  ZINC001074839487   -0.1400
     23 C23        -6.9758    0.6367   52.0456 C.ar    1  ZINC001074839487   -0.0400
     24 C24       -10.7866   -0.3718   54.4716 C.3     1  ZINC001074839487    0.1500
     25 H25       -10.3541   -0.9695   55.2741 H       1  ZINC001074839487    0.0700
     26 C26       -11.4323   -1.2920   53.4337 C.3     1  ZINC001074839487   -0.1400
     27 C27       -11.8447    0.5737   55.0486 C.3     1  ZINC001074839487   -0.1400
     28 H28       -10.2511    1.6297   63.3418 H       1  ZINC001074839487    0.0500
     29 H29        -9.8550    0.0481   64.0559 H       1  ZINC001074839487    0.0500
     30 H30       -11.4634    0.3263   63.3460 H       1  ZINC001074839487    0.0500
     31 H31        -8.8230    0.2964   61.8148 H       1  ZINC001074839487    0.0600
     32 H32       -10.0352   -1.0069   61.8191 H       1  ZINC001074839487    0.0600
     33 H33       -11.7207    0.6070   60.9099 H       1  ZINC001074839487    0.0700
     34 H34       -10.4479    1.8485   60.8249 H       1  ZINC001074839487    0.0700
     35 H35        -9.1272    0.3595   59.3202 H       1  ZINC001074839487    0.0900
     36 H36       -10.4460   -0.8348   59.3707 H       1  ZINC001074839487    0.0900
     37 H37        -9.7009    0.3176   56.8511 H       1  ZINC001074839487    0.4000
     38 H38       -10.6684    2.9278   54.3744 H       1  ZINC001074839487    0.0800
     39 H39        -9.6934    3.1468   55.8481 H       1  ZINC001074839487    0.0800
     40 H40        -8.4147    2.0611   53.9671 H       1  ZINC001074839487    0.1200
     41 H41        -8.5088    1.0429   55.4272 H       1  ZINC001074839487    0.0700
     42 H42        -9.6817    2.4649   51.1182 H       1  ZINC001074839487    0.1500
     43 H43        -7.9106    3.8158   50.0733 H       1  ZINC001074839487    0.1400
     44 H44        -5.1691    3.4698   49.1959 H       1  ZINC001074839487    0.1000
     45 H45        -4.7492    3.9886   50.8544 H       1  ZINC001074839487    0.0800
     46 H46        -4.2140    0.2255   51.2014 H       1  ZINC001074839487    0.1000
     47 H47        -4.0466    1.6022   52.3296 H       1  ZINC001074839487    0.0800
     48 H48        -6.7113   -0.2515   52.6002 H       1  ZINC001074839487    0.1400
     49 H49       -10.7048   -2.0331   53.1025 H       1  ZINC001074839487    0.0800
     50 H50       -12.2889   -1.7976   53.8793 H       1  ZINC001074839487    0.0500
     51 H51       -11.7631   -0.7007   52.5798 H       1  ZINC001074839487    0.0700
     52 H52       -12.5811   -0.0025   55.6086 H       1  ZINC001074839487    0.0900
     53 H53       -12.3395    1.1053   54.2358 H       1  ZINC001074839487    0.0900
@<TRIPOS>BOND
     1     1     2    1
     2     1    28    1
     3     1    29    1
     4     1    30    1
     5     2     3    1
     6     2    31    1
     7     2    32    1
     8     3     4    1
     9     3    33    1
    10     3    34    1
    11     4     5    1
    12     4    35    1
    13     4    36    1
    14     5     6    2
    15     5     7   am
    16     7     8    1
    17     7    37    1
    18     8     9    1
    19     8    27    1
    20     8    10    1
    21    10    11    1
    22    10    38    1
    23    10    39    1
    24    11    12    1
    25    11    40    1
    26    11    41    1
    27    12    13   am
    28    12    24    1
    29    13    14    2
    30    13    15    1
    31    15    23   ar
    32    15    16   ar
    33    16    17   ar
    34    16    42    1
    35    17    18   ar
    36    17    43    1
    37    18    22   ar
    38    18    19    1
    39    19    20    1
    40    19    44    1
    41    19    45    1
    42    20    21    1
    43    21    22    1
    44    21    46    1
    45    21    47    1
    46    22    23   ar
    47    23    48    1
    48    24    25    1
    49    24    26    1
    50    24    27    1
    51    26    49    1
    52    26    50    1
    53    26    51    1
    54    27    52    1
    55    27    53    1
@<TRIPOS>SUBSTRUCTURE
     1 ZINC001074839487        1 TEMP              0 ****  ****    0 ROOT


##########                                Name:    ZINC000817655807
##########                DOCK_Rotatable_Bonds:                   3
##########                         Heavy_Atoms:                  24
##########                    Molecular_Weight:             352.774
##########                DOCK_Rotatable_Bonds:                   3
##########                       Formal_Charge:         3.35276e-07
##########                     HBond_Acceptors:                   8
##########                        HBond_Donors:                   0
##########                         Heavy_Atoms:                  24
##########                          Grid_Score:          -27.673897
##########                     Grid_vdw_energy:          -26.898392
##########                      Grid_es_energy:           -0.775505
##########           Internal_energy_repulsive:            3.040073

@<TRIPOS>MOLECULE
ZINC000817655807
 41 44 1 0 0
SMALL
USER_CHARGES


@<TRIPOS>ATOM
      1 C1         -8.6039    1.6491   53.4782 C.3     1  ZINC000817655807    0.1100
      2 N2         -9.3891    0.4345   53.2447 N.am    1  ZINC000817655807   -0.6400
      3 C3        -10.5297   -0.0194   54.0606 C.3     1  ZINC000817655807    0.1000
      4 C4        -10.9597   -1.3181   53.3725 C.3     1  ZINC000817655807    0.0500
      5 C5        -11.1318   -2.5303   54.2881 C.3     1  ZINC000817655807    0.1200
      6 N6        -12.5591   -2.1505   54.3411 N.am    1  ZINC000817655807   -0.6500
      7 C7        -13.5605   -2.3669   55.2167 C.2     1  ZINC000817655807    0.5500
      8 O8        -14.6669   -1.9226   54.9945 O.2     1  ZINC000817655807   -0.5100
      9 C9        -13.3055   -3.1611   56.4718 C.3     1  ZINC000817655807   -0.0900
     10 C10       -12.6338   -2.2818   57.4949 C.ar    1  ZINC000817655807   -0.0600
     11 C11       -13.1700   -1.0451   57.8001 C.ar    1  ZINC000817655807   -0.0900
     12 C12       -12.5548   -0.2344   58.7371 C.ar    1  ZINC000817655807   -0.0300
     13 Cl13      -13.2307    1.3187   59.1176 Cl      1  ZINC000817655807   -0.0500
     14 C14       -11.3982   -0.6618   59.3733 C.ar    1  ZINC000817655807    0.0600
     15 O15       -10.7993    0.1499   60.2874 O.3     1  ZINC000817655807   -0.2900
     16 C16        -9.8558   -0.4638   61.1726 C.3     1  ZINC000817655807    0.0200
     17 C17        -8.9289   -1.3603   60.3406 C.3     1  ZINC000817655807    0.0200
     18 O18        -9.7310   -2.3481   59.6843 O.3     1  ZINC000817655807   -0.3000
     19 C19       -10.8619   -1.9072   59.0685 C.ar    1  ZINC000817655807    0.0600
     20 C20       -11.4858   -2.7162   58.1305 C.ar    1  ZINC000817655807   -0.0900
     21 C21       -12.4496   -1.4381   53.0509 C.3     1  ZINC000817655807    0.1100
     22 O22       -10.0479   -1.4764   52.2611 O.3     1  ZINC000817655807   -0.3000
     23 C23        -9.1915   -0.4438   52.2499 C.2     1  ZINC000817655807    0.6400
     24 O24        -8.3130   -0.3194   51.4196 O.2     1  ZINC000817655807   -0.5100
     25 H25        -7.8286    1.7325   52.7165 H       1  ZINC000817655807    0.0900
     26 H26        -9.2578    2.5198   53.4279 H       1  ZINC000817655807    0.0700
     27 H27        -8.1410    1.5987   54.4637 H       1  ZINC000817655807    0.0700
     28 H28       -10.2157   -0.2134   55.0863 H       1  ZINC000817655807    0.1000
     29 H29       -11.3358    0.7138   54.0363 H       1  ZINC000817655807    0.1000
     30 H30       -10.9482   -3.4845   53.7943 H       1  ZINC000817655807    0.1100
     31 H31       -10.6157   -2.4371   55.2435 H       1  ZINC000817655807    0.1000
     32 H32       -14.2526   -3.5244   56.8706 H       1  ZINC000817655807    0.1100
     33 H33       -12.6597   -4.0083   56.2407 H       1  ZINC000817655807    0.1100
     34 H34       -14.0703   -0.7109   57.3061 H       1  ZINC000817655807    0.1400
     35 H35        -9.2694    0.3053   61.6752 H       1  ZINC000817655807    0.1300
     36 H36       -10.3836   -1.0664   61.9118 H       1  ZINC000817655807    0.0800
     37 H37        -8.4056   -0.7588   59.5973 H       1  ZINC000817655807    0.0800
     38 H38        -8.2061   -1.8487   60.9941 H       1  ZINC000817655807    0.1300
     39 H39       -11.0718   -3.6852   57.8937 H       1  ZINC000817655807    0.1400
     40 H40       -12.9737   -0.4826   53.0297 H       1  ZINC000817655807    0.1000
     41 H41       -12.6638   -2.0626   52.1836 H       1  ZINC000817655807    0.1100
@<TRIPOS>BOND
     1     1     2    1
     2     1    25    1
     3     1    26    1
     4     1    27    1
     5     2    23   am
     6     2     3    1
     7     3     4    1
     8     3    28    1
     9     3    29    1
    10     4    21    1
    11     4     5    1
    12     4    22    1
    13     5     6    1
    14     5    30    1
    15     5    31    1
    16     6     7   am
    17     6    21    1
    18     7     8    2
    19     7     9    1
    20     9    10    1
    21     9    32    1
    22     9    33    1
    23    10    20   ar
    24    10    11   ar
    25    11    12   ar
    26    11    34    1
    27    12    13    1
    28    12    14   ar
    29    14    19   ar
    30    14    15    1
    31    15    16    1
    32    16    17    1
    33    16    35    1
    34    16    36    1
    35    17    18    1
    36    17    37    1
    37    17    38    1
    38    18    19    1
    39    19    20   ar
    40    20    39    1
    41    21    40    1
    42    21    41    1
    43    22    23    1
    44    23    24    2
@<TRIPOS>SUBSTRUCTURE
     1 ZINC000817655807        1 TEMP              0 ****  ****    0 ROOT


##########                                Name:    ZINC000459459628
##########                DOCK_Rotatable_Bonds:                   8
##########                         Heavy_Atoms:                  27
##########                    Molecular_Weight:             377.366
##########                DOCK_Rotatable_Bonds:                   8
##########                       Formal_Charge:         -0.00999984
##########                     HBond_Acceptors:                   8
##########                        HBond_Donors:                   1
##########                         Heavy_Atoms:                  27
##########                          Grid_Score:          -27.659887
##########                     Grid_vdw_energy:          -26.760077
##########                      Grid_es_energy:           -0.899812
##########           Internal_energy_repulsive:           15.098664

@<TRIPOS>MOLECULE
ZINC000459459628
 45 46 1 0 0
SMALL
USER_CHARGES


@<TRIPOS>ATOM
      1 C1         -6.4027    4.2615   56.3855 C.3     1  ZINC000459459628   -0.1600
      2 C2         -7.2262    3.1728   55.6944 C.3     1  ZINC000459459628    0.1600
      3 H3         -6.6447    2.2520   55.6478 H       1  ZINC000459459628    0.1100
      4 C4         -7.5807    3.6245   54.2762 C.3     1  ZINC000459459628   -0.0900
      5 C5         -7.4150    2.4678   53.3245 C.ar    1  ZINC000459459628   -0.0500
      6 C6         -6.4112    2.4931   52.3745 C.ar    1  ZINC000459459628   -0.1200
      7 C7         -6.2580    1.4327   51.5007 C.ar    1  ZINC000459459628   -0.0900
      8 C8         -7.1083    0.3462   51.5762 C.ar    1  ZINC000459459628   -0.1600
      9 C9         -8.1139    0.3194   52.5278 C.ar    1  ZINC000459459628    0.1000
     10 F10        -8.9459   -0.7424   52.6026 F       1  ZINC000459459628   -0.1400
     11 C11        -8.2631    1.3795   53.4057 C.ar    1  ZINC000459459628   -0.1500
     12 N12        -8.4567    2.9354   56.4533 N.am    1  ZINC000459459628   -0.6200
     13 C13        -9.5878    3.8570   56.3215 C.3     1  ZINC000459459628    0.0700
     14 C14        -8.5479    1.8693   57.2726 C.2     1  ZINC000459459628    0.7100
     15 O15        -7.6096    1.1036   57.3810 O.2     1  ZINC000459459628   -0.5700
     16 N16        -9.6794    1.6518   57.9720 N.am    1  ZINC000459459628   -0.6800
     17 C17        -9.7743    0.5428   58.8243 C.ar    1  ZINC000459459628    0.1500
     18 C18        -9.3305    0.6344   60.1306 C.ar    1  ZINC000459459628   -0.0400
     19 C19        -9.4274   -0.4734   60.9771 C.ar    1  ZINC000459459628   -0.0300
     20 C20        -8.9697   -0.3840   62.3310 C.1     1  ZINC000459459628    0.2600
     21 N21        -8.6066   -0.3132   63.4051 N.1     1  ZINC000459459628   -0.4100
     22 C22        -9.9721   -1.6681   60.4997 C.ar    1  ZINC000459459628   -0.0500
     23 C23       -10.4124   -1.7531   59.1960 C.ar    1  ZINC000459459628   -0.1700
     24 C24       -10.3220   -0.6523   58.3563 C.ar    1  ZINC000459459628    0.1100
     25 O25       -10.7574   -0.7415   57.0727 O.3     1  ZINC000459459628   -0.3200
     26 C26       -12.1109   -1.1545   56.8739 C.3     1  ZINC000459459628    0.4100
     27 F27       -12.7571   -0.2444   56.0306 F       1  ZINC000459459628   -0.1900
     28 F28       -12.1294   -2.4257   56.2899 F       1  ZINC000459459628   -0.1900
     29 H29        -6.9843    5.1823   56.4322 H       1  ZINC000459459628    0.0600
     30 H30        -6.1503    3.9398   57.3959 H       1  ZINC000459459628    0.0600
     31 H31        -5.4873    4.4382   55.8210 H       1  ZINC000459459628    0.0700
     32 H32        -8.6145    3.9693   54.2525 H       1  ZINC000459459628    0.0800
     33 H33        -6.9194    4.4380   53.9781 H       1  ZINC000459459628    0.0900
     34 H34        -5.7465    3.3422   52.3146 H       1  ZINC000459459628    0.1300
     35 H35        -5.4736    1.4538   50.7586 H       1  ZINC000459459628    0.1300
     36 H36        -6.9889   -0.4818   50.8930 H       1  ZINC000459459628    0.1300
     37 H37        -9.0468    1.3595   54.1485 H       1  ZINC000459459628    0.1300
     38 H38       -10.2376    3.5212   55.5133 H       1  ZINC000459459628    0.0600
     39 H39       -10.1501    3.8779   57.2550 H       1  ZINC000459459628    0.0700
     40 H40        -9.2173    4.8573   56.0979 H       1  ZINC000459459628    0.0800
     41 H41       -10.4279    2.2626   57.8856 H       1  ZINC000459459628    0.4100
     42 H42        -8.9096    1.5596   60.4958 H       1  ZINC000459459628    0.1600
     43 H43       -10.0479   -2.5254   61.1521 H       1  ZINC000459459628    0.1400
     44 H44       -10.8325   -2.6776   58.8286 H       1  ZINC000459459628    0.1500
     45 H45       -12.6252   -1.1885   57.8343 H       1  ZINC000459459628    0.1900
@<TRIPOS>BOND
     1     1     2    1
     2     1    29    1
     3     1    30    1
     4     1    31    1
     5     2     3    1
     6     2     4    1
     7     2    12    1
     8     4     5    1
     9     4    32    1
    10     4    33    1
    11     5    11   ar
    12     5     6   ar
    13     6     7   ar
    14     6    34    1
    15     7     8   ar
    16     7    35    1
    17     8     9   ar
    18     8    36    1
    19     9    10    1
    20     9    11   ar
    21    11    37    1
    22    12    13    1
    23    12    14   am
    24    13    38    1
    25    13    39    1
    26    13    40    1
    27    14    15    2
    28    14    16   am
    29    16    17    1
    30    16    41    1
    31    17    24   ar
    32    17    18   ar
    33    18    19   ar
    34    18    42    1
    35    19    20    1
    36    19    22   ar
    37    20    21    3
    38    22    23   ar
    39    22    43    1
    40    23    24   ar
    41    23    44    1
    42    24    25    1
    43    25    26    1
    44    26    27    1
    45    26    28    1
    46    26    45    1
@<TRIPOS>SUBSTRUCTURE
     1 ZINC000459459628        1 TEMP              0 ****  ****    0 ROOT


##########                                Name:    ZINC000011972961
##########                DOCK_Rotatable_Bonds:                   6
##########                         Heavy_Atoms:                  28
##########                    Molecular_Weight:             397.501
##########                DOCK_Rotatable_Bonds:                   6
##########                       Formal_Charge:                   0
##########                     HBond_Acceptors:                   8
##########                        HBond_Donors:                   1
##########                         Heavy_Atoms:                  28
##########                          Grid_Score:          -27.659058
##########                     Grid_vdw_energy:          -27.659058
##########                      Grid_es_energy:            0.000000
##########           Internal_energy_repulsive:           26.187130

@<TRIPOS>MOLECULE
ZINC000011972961
 51 54 1 0 0
SMALL
USER_CHARGES


@<TRIPOS>ATOM
      1 C1         -4.4896    4.5043   53.1769 C.3        |Tv      0.0000
      2 C2         -4.1707    3.7066   51.9388 C.2        |Tv      0.0000
      3 C3         -5.0757    3.4892   50.9762 C.2        |Tv      0.0000
      4 C4         -6.4571    3.9856   51.0011 C.2        |Tv      0.0000
      5 O5         -6.7181    5.0816   50.5415 O.2        |Tv      0.0000
      6 N6         -7.4361    3.2273   51.5330 N.am       |Tv      0.0000
      7 C7         -8.8146    3.7227   51.5580 C.3        |Tv      0.0000
      8 C8         -7.1218    1.9077   52.0864 C.3        |Tv      0.0000
      9 H9         -6.0851    1.8724   52.4210 H          |Tv      0.0000
     10 C10        -8.0799    1.5677   53.2541 C.3        |Tv      0.0000
     11 C11        -9.1421    0.6815   52.5548 C.3        |Tv      0.0000
     12 O12        -8.3697   -0.0847   51.6057 O.3        |Tv      0.0000
     13 C13        -7.3893    0.8071   51.0416 C.3        |Tv      0.0000
     14 S14        -4.3827    2.5295   49.6801 S.3        |Tv      0.0000
     15 C15        -2.8320    2.4453   50.5050 C.ar       |Tv      0.0000
     16 N16        -1.6809    1.8550   50.1637 N.ar       |Tv      0.0000
     17 C17        -0.6275    1.9208   50.9453 C.ar       |Tv      0.0000
     18 N18        -0.6454    2.5654   52.0977 N.ar       |Tv      0.0000
     19 C19        -1.7370    3.1821   52.5242 C.ar       |Tv      0.0000
     20 N20        -1.7379    3.8511   53.7314 N.pl3      |Tv      0.0000
     21 C21        -0.5202    4.5165   54.2010 C.3        |Tv      0.0000
     22 C22        -0.7088    4.9599   55.6289 C.ar       |Tv      0.0000
     23 N23        -1.5011    4.2704   56.4261 N.ar       |Tv      0.0000
     24 C24        -1.6957    4.6206   57.6826 C.ar       |Tv      0.0000
     25 C25        -2.6115    3.7978   58.5518 C.3        |Tv      0.0000
     26 C26        -1.0694    5.7330   58.2115 C.ar       |Tv      0.0000
     27 C27        -0.2286    6.4833   57.4033 C.ar       |Tv      0.0000
     28 C28        -0.0449    6.0815   56.0893 C.ar       |Tv      0.0000
     29 C29        -2.9078    3.1486   51.7152 C.ar       |Tv      0.0000
     30 H30        -3.9392    5.4450   53.1549 H          |Tv      0.0000
     31 H31        -5.5595    4.7102   53.2110 H          |Tv      0.0000
     32 H32        -4.2008    3.9350   54.0604 H          |Tv      0.0000
     33 H33        -9.1854    3.8167   50.5373 H          |Tv      0.0000
     34 H34        -9.4422    3.0228   52.1096 H          |Tv      0.0000
     35 H35        -8.8418    4.6972   52.0456 H          |Tv      0.0000
     36 H36        -7.5604    1.0103   54.0336 H          |Tv      0.0000
     37 H37        -8.5338    2.4715   53.6606 H          |Tv      0.0000
     38 H38        -9.6272    0.0231   53.2755 H          |Tv      0.0000
     39 H39        -9.8788    1.2988   52.0408 H          |Tv      0.0000
     40 H40        -7.7770    1.2525   50.1255 H          |Tv      0.0000
     41 H41        -6.4697    0.2613   50.8303 H          |Tv      0.0000
     42 H42         0.2837    1.4310   50.6353 H          |Tv      0.0000
     43 H43        -2.5448    3.8806   54.2689 H          |Tv      0.0000
     44 H44         0.3184    3.8225   54.1438 H          |Tv      0.0000
     45 H45        -0.3163    5.3852   53.5748 H          |Tv      0.0000
     46 H46        -2.0364    3.0158   59.0474 H          |Tv      0.0000
     47 H47        -3.0739    4.4394   59.3018 H          |Tv      0.0000
     48 H48        -3.3866    3.3432   57.9347 H          |Tv      0.0000
     49 H49        -1.2328    6.0147   59.2412 H          |Tv      0.0000
     50 H50         0.2742    7.3577   57.7895 H          |Tv      0.0000
     51 H51         0.6031    6.6418   55.4317 H          |Tv      0.0000
@<TRIPOS>BOND
     1     1     2    1
     2     1    30    1
     3     1    31    1
     4     1    32    1
     5     2    29    1
     6     2     3    2
     7     3     4    1
     8     3    14    1
     9     4     5    2
    10     4     6   am
    11     6     7    1
    12     6     8    1
    13     7    33    1
    14     7    34    1
    15     7    35    1
    16     8     9    1
    17     8    13    1
    18     8    10    1
    19    10    11    1
    20    10    36    1
    21    10    37    1
    22    11    12    1
    23    11    38    1
    24    11    39    1
    25    12    13    1
    26    13    40    1
    27    13    41    1
    28    14    15    1
    29    15    29   ar
    30    15    16   ar
    31    16    17   ar
    32    17    18   ar
    33    17    42    1
    34    18    19   ar
    35    19    20    1
    36    19    29   ar
    37    20    21    1
    38    20    43    1
    39    21    22    1
    40    21    44    1
    41    21    45    1
    42    22    28   ar
    43    22    23   ar
    44    23    24   ar
    45    24    25    1
    46    24    26   ar
    47    25    46    1
    48    25    47    1
    49    25    48    1
    50    26    27   ar
    51    26    49    1
    52    27    28   ar
    53    27    50    1
    54    28    51    1
@<TRIPOS>SUBSTRUCTURE
     1 |Tv        1 TEMP              0 ****  ****    0 ROOT


##########                                Name:    ZINC000477669194
##########                DOCK_Rotatable_Bonds:                   6
##########                         Heavy_Atoms:                  26
##########                    Molecular_Weight:             387.483
##########                DOCK_Rotatable_Bonds:                   6
##########                       Formal_Charge:         4.47035e-07
##########                     HBond_Acceptors:                   8
##########                        HBond_Donors:                   2
##########                         Heavy_Atoms:                  26
##########                          Grid_Score:          -27.639284
##########                     Grid_vdw_energy:          -25.529194
##########                      Grid_es_energy:           -2.110090
##########           Internal_energy_repulsive:           21.569536

@<TRIPOS>MOLECULE
ZINC000477669194
 43 45 1 0 0
SMALL
USER_CHARGES


@<TRIPOS>ATOM
      1 C1         -7.3840    0.0323   51.0605 C.3     1  ZINC000477669194   -0.0800
      2 C2         -8.3416    0.1351   52.2197 C.2     1  ZINC000477669194    0.0500
      3 N3         -8.2204    0.9604   53.2013 N.2     1  ZINC000477669194   -0.4900
      4 C4         -9.1531    0.9216   54.1419 C.2     1  ZINC000477669194    0.1200
      5 C5         -9.1413    1.8126   55.3274 C.ar    1  ZINC000477669194   -0.0600
      6 C6        -10.1915    1.7753   56.2409 C.ar    1  ZINC000477669194   -0.0800
      7 C7        -10.1760    2.6069   57.3431 C.ar    1  ZINC000477669194   -0.1400
      8 C8         -9.1204    3.4782   57.5446 C.ar    1  ZINC000477669194   -0.0900
      9 C9         -8.0724    3.5245   56.6445 C.ar    1  ZINC000477669194   -0.1300
     10 C10        -8.0714    2.6908   55.5363 C.ar    1  ZINC000477669194    0.1800
     11 N11        -7.0124    2.7359   54.6254 N.am    1  ZINC000477669194   -0.6500
     12 C12        -6.9280    3.7481   53.7397 C.2     1  ZINC000477669194    0.5600
     13 O13        -7.7733    4.6224   53.7331 O.2     1  ZINC000477669194   -0.5200
     14 C14        -5.8104    3.7957   52.7784 C.ar    1  ZINC000477669194   -0.1500
     15 C15        -5.2463    2.6090   52.3008 C.ar    1  ZINC000477669194   -0.0600
     16 C16        -4.2040    2.6566   51.4036 C.ar    1  ZINC000477669194   -0.1400
     17 C17        -3.7112    3.8849   50.9714 C.ar    1  ZINC000477669194    0.1700
     18 N18        -2.6579    3.9296   50.0648 N.am    1  ZINC000477669194   -1.0600
     19 S19        -1.1122    4.1812   50.6032 S.o2    1  ZINC000477669194    2.6100
     20 C20        -0.7923    2.7928   51.7259 C.3     1  ZINC000477669194   -0.6700
     21 O21        -0.3117    4.0720   49.4343 O.2     1  ZINC000477669194   -0.9400
     22 O22        -1.1879    5.4013   51.3279 O.2     1  ZINC000477669194   -0.9500
     23 C23        -4.2711    5.0684   51.4448 C.ar    1  ZINC000477669194   -0.1600
     24 C24        -5.3167    5.0274   52.3383 C.ar    1  ZINC000477669194   -0.0300
     25 C25       -10.1142    0.0006   53.9257 C.2     1  ZINC000477669194   -0.2600
     26 S26        -9.7444   -0.8220   52.4123 S.3     1  ZINC000477669194    0.1500
     27 H27        -7.7265   -0.7418   50.3739 H       1  ZINC000477669194    0.0800
     28 H28        -7.3415    0.9882   50.5386 H       1  ZINC000477669194    0.0900
     29 H29        -6.3913   -0.2239   51.4309 H       1  ZINC000477669194    0.0900
     30 H30       -11.0177    1.0970   56.0872 H       1  ZINC000477669194    0.1300
     31 H31       -10.9914    2.5773   58.0507 H       1  ZINC000477669194    0.1300
     32 H32        -9.1153    4.1255   58.4090 H       1  ZINC000477669194    0.1300
     33 H33        -7.2515    4.2073   56.8068 H       1  ZINC000477669194    0.1500
     34 H34        -6.3382    2.0385   54.6307 H       1  ZINC000477669194    0.4200
     35 H35        -5.6279    1.6558   52.6359 H       1  ZINC000477669194    0.1300
     36 H36        -3.7675    1.7403   51.0346 H       1  ZINC000477669194    0.1400
     37 H37        -2.8284    3.8135   49.1170 H       1  ZINC000477669194    0.4300
     38 H38        -0.7968    1.8605   51.1612 H       1  ZINC000477669194    0.1300
     39 H39         0.1801    2.9256   52.2002 H       1  ZINC000477669194    0.1400
     40 H40        -1.5680    2.7580   52.4909 H       1  ZINC000477669194    0.1300
     41 H41        -3.8869    6.0197   51.1073 H       1  ZINC000477669194    0.1700
     42 H42        -5.7508    5.9459   52.7049 H       1  ZINC000477669194    0.1500
     43 H43       -10.9624   -0.1951   54.5649 H       1  ZINC000477669194    0.1800
@<TRIPOS>BOND
     1     1     2    1
     2     1    27    1
     3     1    28    1
     4     1    29    1
     5     2    26    1
     6     2     3    2
     7     3     4    1
     8     4     5    1
     9     4    25    2
    10     5    10   ar
    11     5     6   ar
    12     6     7   ar
    13     6    30    1
    14     7     8   ar
    15     7    31    1
    16     8     9   ar
    17     8    32    1
    18     9    10   ar
    19     9    33    1
    20    10    11    1
    21    11    12   am
    22    11    34    1
    23    12    13    2
    24    12    14    1
    25    14    24   ar
    26    14    15   ar
    27    15    16   ar
    28    15    35    1
    29    16    17   ar
    30    16    36    1
    31    17    18    1
    32    17    23   ar
    33    18    19   am
    34    18    37    1
    35    19    20    1
    36    19    21    2
    37    19    22    2
    38    20    38    1
    39    20    39    1
    40    20    40    1
    41    23    24   ar
    42    23    41    1
    43    24    42    1
    44    25    26    1
    45    25    43    1
@<TRIPOS>SUBSTRUCTURE
     1 ZINC000477669194        1 TEMP              0 ****  ****    0 ROOT


##########                                Name:    ZINC000074782190
##########                DOCK_Rotatable_Bonds:                   9
##########                         Heavy_Atoms:                  25
##########                    Molecular_Weight:             341.453
##########                DOCK_Rotatable_Bonds:                   9
##########                       Formal_Charge:          -0.0200006
##########                     HBond_Acceptors:                   5
##########                        HBond_Donors:                   1
##########                         Heavy_Atoms:                  25
##########                          Grid_Score:          -27.625038
##########                     Grid_vdw_energy:          -27.231079
##########                      Grid_es_energy:           -0.393959
##########           Internal_energy_repulsive:           25.339418

@<TRIPOS>MOLECULE
ZINC000074782190
 52 53 1 0 0
SMALL
USER_CHARGES


@<TRIPOS>ATOM
      1 C1        -14.5206   -1.8241   60.6188 C.3     1  ZINC000074782190   -0.1100
      2 C2        -13.9203   -0.8875   61.6353 C.ar    1  ZINC000074782190   -0.1200
      3 C3        -14.6126   -0.5871   62.7921 C.ar    1  ZINC000074782190   -0.0800
      4 C4        -14.0625    0.2727   63.7251 C.ar    1  ZINC000074782190   -0.1500
      5 C5        -12.8186    0.8333   63.5028 C.ar    1  ZINC000074782190   -0.0900
      6 C6        -12.1218    0.5357   62.3475 C.ar    1  ZINC000074782190   -0.2100
      7 C7        -12.6691   -0.3305   61.4126 C.ar    1  ZINC000074782190    0.1300
      8 O8        -11.9857   -0.6248   60.2753 O.3     1  ZINC000074782190   -0.3000
      9 C9        -10.8084   -1.4227   60.4140 C.3     1  ZINC000074782190    0.0700
     10 H10       -10.7994   -1.8890   61.3992 H       1  ZINC000074782190    0.0800
     11 C11        -9.5707   -0.5371   60.2577 C.3     1  ZINC000074782190   -0.1800
     12 C12       -10.7982   -2.5084   59.3360 C.3     1  ZINC000074782190    0.1400
     13 N13       -11.8189   -2.2068   58.3294 N.am    1  ZINC000074782190   -0.7500
     14 C14       -11.6971   -2.6946   57.0789 C.2     1  ZINC000074782190    0.7100
     15 O15       -10.7401   -3.3851   56.7863 O.2     1  ZINC000074782190   -0.5900
     16 N16       -12.6362   -2.4172   56.1529 N.am    1  ZINC000074782190   -0.6200
     17 C17       -12.5038   -2.9475   54.7937 C.3     1  ZINC000074782190    0.1800
     18 C18       -11.6004   -2.0485   53.9895 C.ar    1  ZINC000074782190   -0.1600
     19 C19       -10.9316   -0.9985   54.5991 C.ar    1  ZINC000074782190   -0.0500
     20 C20       -10.1103   -0.1977   53.8198 C.ar    1  ZINC000074782190   -0.1800
     21 C21        -9.9869   -0.4711   52.4709 C.ar    1  ZINC000074782190    0.1000
     22 N22       -10.6386   -1.4790   51.9245 N.ar    1  ZINC000074782190   -0.4900
     23 C23       -11.4236   -2.2642   52.6355 C.ar    1  ZINC000074782190    0.1100
     24 C24       -13.7894   -1.5852   56.5056 C.3     1  ZINC000074782190    0.1300
     25 C25       -14.1344   -0.6675   55.3310 C.3     1  ZINC000074782190   -0.1800
     26 C26       -14.9880   -2.4822   56.8211 C.3     1  ZINC000074782190   -0.1800
     27 H27       -14.2255   -2.8478   60.8491 H       1  ZINC000074782190    0.0700
     28 H28       -15.6073   -1.7439   60.6479 H       1  ZINC000074782190    0.0600
     29 H29       -14.1633   -1.5582   59.6240 H       1  ZINC000074782190    0.0700
     30 H30       -15.5845   -1.0240   62.9680 H       1  ZINC000074782190    0.1300
     31 H31       -14.6058    0.5068   64.6286 H       1  ZINC000074782190    0.1200
     32 H32       -12.3913    1.5049   64.2329 H       1  ZINC000074782190    0.1200
     33 H33       -11.1502    0.9743   62.1742 H       1  ZINC000074782190    0.1300
     34 H34        -9.5796   -0.0708   59.2725 H       1  ZINC000074782190    0.0700
     35 H35        -9.5779    0.2364   61.0257 H       1  ZINC000074782190    0.0700
     36 H36        -8.6726   -1.1457   60.3635 H       1  ZINC000074782190    0.0800
     37 H37        -9.8176   -2.5395   58.8611 H       1  ZINC000074782190    0.0800
     38 H38       -11.0119   -3.4752   59.7919 H       1  ZINC000074782190    0.0900
     39 H39       -12.5825   -1.6560   58.5629 H       1  ZINC000074782190    0.4100
     40 H40       -12.0766   -3.9494   54.8346 H       1  ZINC000074782190    0.0900
     41 H41       -13.4861   -2.9903   54.3231 H       1  ZINC000074782190    0.1000
     42 H42       -11.0476   -0.8084   55.6559 H       1  ZINC000074782190    0.1400
     43 H43        -9.5745    0.6294   54.2615 H       1  ZINC000074782190    0.1300
     44 H44        -9.3496    0.1482   51.8571 H       1  ZINC000074782190    0.1600
     45 H45       -11.9412   -3.0801   52.1530 H       1  ZINC000074782190    0.1500
     46 H46       -13.5476   -0.9810   57.3799 H       1  ZINC000074782190    0.1000
     47 H47       -14.4632   -1.2695   54.4839 H       1  ZINC000074782190    0.0600
     48 H48       -14.9331    0.0137   55.6244 H       1  ZINC000074782190    0.0700
     49 H49       -13.2525   -0.0927   55.0478 H       1  ZINC000074782190    0.0600
     50 H50       -14.7858   -3.0533   57.7272 H       1  ZINC000074782190    0.0700
     51 H51       -15.8741   -1.8653   56.9704 H       1  ZINC000074782190    0.0700
     52 H52       -15.1579   -3.1671   55.9902 H       1  ZINC000074782190    0.0700
@<TRIPOS>BOND
     1     1     2    1
     2     1    27    1
     3     1    28    1
     4     1    29    1
     5     2     7   ar
     6     2     3   ar
     7     3     4   ar
     8     3    30    1
     9     4     5   ar
    10     4    31    1
    11     5     6   ar
    12     5    32    1
    13     6     7   ar
    14     6    33    1
    15     7     8    1
    16     8     9    1
    17     9    10    1
    18     9    11    1
    19     9    12    1
    20    11    34    1
    21    11    35    1
    22    11    36    1
    23    12    13    1
    24    12    37    1
    25    12    38    1
    26    13    14   am
    27    13    39    1
    28    14    15    2
    29    14    16   am
    30    16    17    1
    31    16    24    1
    32    17    18    1
    33    17    40    1
    34    17    41    1
    35    18    23   ar
    36    18    19   ar
    37    19    20   ar
    38    19    42    1
    39    20    21   ar
    40    20    43    1
    41    21    22   ar
    42    21    44    1
    43    22    23   ar
    44    23    45    1
    45    24    25    1
    46    24    26    1
    47    24    46    1
    48    25    47    1
    49    25    48    1
    50    25    49    1
    51    26    50    1
    52    26    51    1
    53    26    52    1
@<TRIPOS>SUBSTRUCTURE
     1 ZINC000074782190        1 TEMP              0 ****  ****    0 ROOT


##########                                Name:    ZINC001122903793
##########                DOCK_Rotatable_Bonds:                   4
##########                         Heavy_Atoms:                  25
##########                    Molecular_Weight:             399.968
##########                DOCK_Rotatable_Bonds:                   4
##########                       Formal_Charge:           0.0100003
##########                     HBond_Acceptors:                   9
##########                        HBond_Donors:                   0
##########                         Heavy_Atoms:                  25
##########                          Grid_Score:          -27.585876
##########                     Grid_vdw_energy:          -27.094744
##########                      Grid_es_energy:           -0.491133
##########           Internal_energy_repulsive:           21.543402

@<TRIPOS>MOLECULE
ZINC001122903793
 47 50 1 0 0
SMALL
USER_CHARGES


@<TRIPOS>ATOM
      1 C1        -10.7773    0.5551   53.1704 C.3     1  ZINC001122903793   -0.1400
      2 C2        -10.8983   -0.6864   54.0564 C.3     1  ZINC001122903793   -0.0400
      3 H3        -10.0532   -0.7295   54.7436 H       1  ZINC001122903793    0.1000
      4 S4        -10.9178   -2.1793   53.0174 S.3     1  ZINC001122903793   -0.2500
      5 C5        -11.3399   -3.4721   54.2254 C.3     1  ZINC001122903793   -0.0800
      6 C6        -12.5896   -3.0300   54.9942 C.3     1  ZINC001122903793    0.0700
      7 N7        -12.3107   -1.7940   55.7289 N.3     1  ZINC001122903793   -0.4800
      8 C8        -13.2518   -1.5845   56.7236 C.2     1  ZINC001122903793    0.3700
      9 N9        -14.4649   -1.1108   56.5596 N.2     1  ZINC001122903793   -0.2900
     10 N10       -15.0715   -1.0456   57.6906 N.2     1  ZINC001122903793   -0.2400
     11 C11       -14.2804   -1.4749   58.6490 C.2     1  ZINC001122903793    0.2600
     12 C12       -14.6058   -1.5567   60.0823 C.2     1  ZINC001122903793   -0.1600
     13 C13       -15.6092   -2.2804   60.6329 C.2     1  ZINC001122903793    0.1600
     14 Cl14      -16.6980   -3.2521   59.6927 Cl      1  ZINC001122903793    0.0300
     15 N15       -15.6871   -2.1830   61.9413 N.2     1  ZINC001122903793   -0.4600
     16 C16       -14.8206   -1.4287   62.5320 C.2     1  ZINC001122903793    0.0300
     17 S17       -13.7545   -0.7366   61.3890 S.3     1  ZINC001122903793    0.2200
     18 N18       -13.0915   -1.8380   58.0569 N.pl3   1  ZINC001122903793   -0.4600
     19 C19       -11.9008   -2.3767   58.7190 C.3     1  ZINC001122903793    0.1100
     20 C20       -10.7343   -1.4027   58.5419 C.3     1  ZINC001122903793    0.0700
     21 H21       -10.6365   -1.1169   57.4946 H       1  ZINC001122903793    0.0800
     22 C22       -10.9437   -0.1467   59.4248 C.3     1  ZINC001122903793   -0.1500
     23 C23        -9.4780    0.3334   59.6067 C.3     1  ZINC001122903793   -0.1500
     24 C24        -8.6989   -0.9990   59.6443 C.3     1  ZINC001122903793    0.0500
     25 O25        -9.5137   -1.9956   59.0130 O.3     1  ZINC001122903793   -0.3700
     26 C26       -12.2065   -0.6254   54.8523 C.3     1  ZINC001122903793    0.1000
     27 H27       -13.0472   -0.6169   54.1586 H       1  ZINC001122903793    0.0800
     28 C28       -12.2329    0.6489   55.6986 C.3     1  ZINC001122903793   -0.1500
     29 H29       -10.7728    1.4483   53.7951 H       1  ZINC001122903793    0.0800
     30 H30        -9.8495    0.5057   52.6004 H       1  ZINC001122903793    0.0700
     31 H31       -11.6234    0.5956   52.4844 H       1  ZINC001122903793    0.0700
     32 H32       -11.5423   -4.4079   53.7045 H       1  ZINC001122903793    0.1200
     33 H33       -10.5114   -3.6083   54.9204 H       1  ZINC001122903793    0.0900
     34 H34       -13.4050   -2.8575   54.2917 H       1  ZINC001122903793    0.0700
     35 H35       -12.8779   -3.8118   55.6969 H       1  ZINC001122903793    0.0900
     36 H36       -14.7736   -1.2624   63.5980 H       1  ZINC001122903793    0.2100
     37 H37       -12.1048   -2.5100   59.7814 H       1  ZINC001122903793    0.1200
     38 H38       -11.6421   -3.3381   58.2754 H       1  ZINC001122903793    0.1000
     39 H39       -11.5411    0.6029   58.9062 H       1  ZINC001122903793    0.0900
     40 H40       -11.3924   -0.4102   60.3826 H       1  ZINC001122903793    0.0800
     41 H41        -9.1619    0.9438   58.7609 H       1  ZINC001122903793    0.0800
     42 H42        -9.3614    0.8774   60.5442 H       1  ZINC001122903793    0.0900
     43 H43        -7.7594   -0.8934   59.1017 H       1  ZINC001122903793    0.0700
     44 H44        -8.5006   -1.2824   60.6779 H       1  ZINC001122903793    0.0700
     45 H45       -11.3941    0.6402   56.3947 H       1  ZINC001122903793    0.0600
     46 H46       -12.1553    1.5194   55.0472 H       1  ZINC001122903793    0.0800
     47 H47       -13.1678    0.6950   56.2569 H       1  ZINC001122903793    0.0600
@<TRIPOS>BOND
     1     1     2    1
     2     1    29    1
     3     1    30    1
     4     1    31    1
     5     2     3    1
     6     2    26    1
     7     2     4    1
     8     4     5    1
     9     5     6    1
    10     5    32    1
    11     5    33    1
    12     6     7    1
    13     6    34    1
    14     6    35    1
    15     7     8    1
    16     7    26    1
    17     8    18    1
    18     8     9    2
    19     9    10    1
    20    10    11    2
    21    11    12    1
    22    11    18    1
    23    12    17    1
    24    12    13    2
    25    13    14    1
    26    13    15    1
    27    15    16    2
    28    16    17    1
    29    16    36    1
    30    18    19    1
    31    19    20    1
    32    19    37    1
    33    19    38    1
    34    20    21    1
    35    20    25    1
    36    20    22    1
    37    22    23    1
    38    22    39    1
    39    22    40    1
    40    23    24    1
    41    23    41    1
    42    23    42    1
    43    24    25    1
    44    24    43    1
    45    24    44    1
    46    26    27    1
    47    26    28    1
    48    28    45    1
    49    28    46    1
    50    28    47    1
@<TRIPOS>SUBSTRUCTURE
     1 ZINC001122903793        1 TEMP              0 ****  ****    0 ROOT


##########                                Name:    ZINC000939075213
##########                DOCK_Rotatable_Bonds:                   7
##########                         Heavy_Atoms:                  24
##########                    Molecular_Weight:             327.426
##########                DOCK_Rotatable_Bonds:                   7
##########                       Formal_Charge:          -0.0200002
##########                     HBond_Acceptors:                   5
##########                        HBond_Donors:                   2
##########                         Heavy_Atoms:                  24
##########                          Grid_Score:          -27.585865
##########                     Grid_vdw_energy:          -26.498924
##########                      Grid_es_energy:           -1.086940
##########           Internal_energy_repulsive:            8.453397

@<TRIPOS>MOLECULE
ZINC000939075213
 49 51 1 0 0
SMALL
USER_CHARGES


@<TRIPOS>ATOM
      1 C1        -11.5558   -1.6818   51.8685 C.3     1  ZINC000939075213   -0.1400
      2 C2        -10.9029   -1.5280   53.2436 C.3     1  ZINC000939075213   -0.1100
      3 H3         -9.8908   -1.9328   53.2408 H       1  ZINC000939075213    0.0900
      4 C4        -11.7644   -2.1944   54.3450 C.3     1  ZINC000939075213    0.1100
      5 N5        -11.4022   -1.4875   55.5869 N.am    1  ZINC000939075213   -0.6200
      6 C6        -11.5228   -1.9808   56.8354 C.2     1  ZINC000939075213    0.5600
      7 O7        -11.9653   -3.1023   57.0069 O.2     1  ZINC000939075213   -0.5400
      8 C8        -11.1353   -1.1954   57.9471 C.2     1  ZINC000939075213   -0.2600
      9 C9        -10.3951   -1.7459   58.9411 C.2     1  ZINC000939075213    0.0400
     10 C10       -10.0070   -0.9599   60.0541 C.2     1  ZINC000939075213    0.0000
     11 C11       -10.4267    0.3280   60.3319 C.2     1  ZINC000939075213   -0.1500
     12 C12        -9.8004    0.7167   61.5197 C.2     1  ZINC000939075213   -0.2200
     13 C13        -9.0268   -0.3136   61.9393 C.2     1  ZINC000939075213    0.0200
     14 N14        -9.1477   -1.3410   61.0601 N.pl3   1  ZINC000939075213   -0.5000
     15 C15       -10.8867   -0.1555   55.2380 C.3     1  ZINC000939075213    0.0900
     16 C16       -10.9072   -0.0446   53.6984 C.3     1  ZINC000939075213    0.1400
     17 H17       -11.8127    0.4592   53.3602 H       1  ZINC000939075213    0.1100
     18 N18        -9.7150    0.6551   53.2133 N.am    1  ZINC000939075213   -0.7200
     19 C19        -9.8326    1.8696   52.6410 C.2     1  ZINC000939075213    0.5300
     20 O20       -10.9255    2.3827   52.5262 O.2     1  ZINC000939075213   -0.5300
     21 C21        -8.6060    2.5901   52.1436 C.3     1  ZINC000939075213   -0.0600
     22 C22        -7.9005    3.3004   53.3005 C.3     1  ZINC000939075213   -0.1300
     23 C23        -7.6653    1.6214   51.4653 C.2     1  ZINC000939075213   -0.1700
     24 C24        -7.2117    2.1135   50.3447 C.2     1  ZINC000939075213   -0.1400
     25 C25        -7.7742    3.4922   50.0886 C.3     1  ZINC000939075213   -0.1100
     26 C26        -8.9874    3.6049   51.0409 C.3     1  ZINC000939075213   -0.1100
     27 H27       -10.9731   -1.1360   51.1264 H       1  ZINC000939075213    0.0600
     28 H28       -11.5903   -2.7374   51.5987 H       1  ZINC000939075213    0.0700
     29 H29       -12.5692   -1.2817   51.9006 H       1  ZINC000939075213    0.0600
     30 H30       -12.8246   -2.0628   54.1290 H       1  ZINC000939075213    0.0700
     31 H31       -11.5219   -3.2539   54.4271 H       1  ZINC000939075213    0.0800
     32 H32       -11.4291   -0.1577   58.0038 H       1  ZINC000939075213    0.1300
     33 H33       -10.1013   -2.7837   58.8843 H       1  ZINC000939075213    0.1500
     34 H34       -11.1093    0.9219   59.7421 H       1  ZINC000939075213    0.1400
     35 H35        -9.9131    1.6696   62.0152 H       1  ZINC000939075213    0.1400
     36 H36        -8.4162   -0.3181   62.8301 H       1  ZINC000939075213    0.1600
     37 H37        -8.6989   -2.1984   61.1266 H       1  ZINC000939075213    0.4100
     38 H38       -11.5235    0.6143   55.6741 H       1  ZINC000939075213    0.0800
     39 H39        -9.8656   -0.0458   55.6034 H       1  ZINC000939075213    0.0700
     40 H40        -8.8410    0.2443   53.3040 H       1  ZINC000939075213    0.4000
     41 H41        -7.6136    2.5683   54.0555 H       1  ZINC000939075213    0.0600
     42 H42        -7.0097    3.8058   52.9276 H       1  ZINC000939075213    0.0700
     43 H43        -8.5755    4.0329   53.7429 H       1  ZINC000939075213    0.0600
     44 H44        -7.4025    0.6497   51.8567 H       1  ZINC000939075213    0.1300
     45 H45        -6.5243    1.6023   49.6870 H       1  ZINC000939075213    0.1300
     46 H46        -7.0328    4.2551   50.3265 H       1  ZINC000939075213    0.0800
     47 H47        -8.0959    3.5845   49.0513 H       1  ZINC000939075213    0.0800
     48 H48        -9.9082    3.3088   50.5382 H       1  ZINC000939075213    0.0900
     49 H49        -9.0726    4.6121   51.4485 H       1  ZINC000939075213    0.0800
@<TRIPOS>BOND
     1     1     2    1
     2     1    27    1
     3     1    28    1
     4     1    29    1
     5     2     3    1
     6     2    16    1
     7     2     4    1
     8     4     5    1
     9     4    30    1
    10     4    31    1
    11     5     6   am
    12     5    15    1
    13     6     7    2
    14     6     8    1
    15     8     9    2
    16     8    32    1
    17     9    10    1
    18     9    33    1
    19    10    14    1
    20    10    11    2
    21    11    12    1
    22    11    34    1
    23    12    13    2
    24    12    35    1
    25    13    14    1
    26    13    36    1
    27    14    37    1
    28    15    16    1
    29    15    38    1
    30    15    39    1
    31    16    17    1
    32    16    18    1
    33    18    19   am
    34    18    40    1
    35    19    20    2
    36    19    21    1
    37    21    26    1
    38    21    22    1
    39    21    23    1
    40    22    41    1
    41    22    42    1
    42    22    43    1
    43    23    24    2
    44    23    44    1
    45    24    25    1
    46    24    45    1
    47    25    26    1
    48    25    46    1
    49    25    47    1
    50    26    48    1
    51    26    49    1
@<TRIPOS>SUBSTRUCTURE
     1 ZINC000939075213        1 TEMP              0 ****  ****    0 ROOT


##########                                Name:    ZINC001271977984
##########                DOCK_Rotatable_Bonds:                   7
##########                         Heavy_Atoms:                  24
##########                    Molecular_Weight:             328.371
##########                DOCK_Rotatable_Bonds:                   7
##########                       Formal_Charge:           0.0200001
##########                     HBond_Acceptors:                   7
##########                        HBond_Donors:                   0
##########                         Heavy_Atoms:                  24
##########                          Grid_Score:          -27.581573
##########                     Grid_vdw_energy:          -26.634895
##########                      Grid_es_energy:           -0.946678
##########           Internal_energy_repulsive:           51.924343

@<TRIPOS>MOLECULE
ZINC001271977984
 44 46 1 0 0
SMALL
USER_CHARGES


@<TRIPOS>ATOM
      1 C1         -7.4674    3.7903   56.5890 C.3     1  ZINC001271977984   -0.1800
      2 C2         -7.7940    2.3292   56.2735 C.3     1  ZINC001271977984    0.1700
      3 H3         -6.8835    1.8097   55.9751 H       1  ZINC001271977984    0.1100
      4 C4         -8.3715    1.6678   57.4982 C.2     1  ZINC001271977984    0.2700
      5 N5         -8.3088    0.3958   57.7542 N.2     1  ZINC001271977984   -0.4700
      6 C6         -8.9320    0.1559   58.9397 C.ar    1  ZINC001271977984    0.0200
      7 C7         -9.1664   -0.9957   59.6922 C.ar    1  ZINC001271977984   -0.0600
      8 C8         -9.8479   -0.9049   60.8855 C.ar    1  ZINC001271977984   -0.1200
      9 C9        -10.3018    0.3230   61.3432 C.ar    1  ZINC001271977984   -0.0900
     10 C10       -10.0776    1.4695   60.6096 C.ar    1  ZINC001271977984   -0.0900
     11 C11        -9.3931    1.3966   59.4064 C.ar    1  ZINC001271977984    0.0100
     12 O12        -9.0190    2.3097   58.4833 O.3     1  ZINC001271977984   -0.2100
     13 N13        -8.7719    2.2715   55.1787 N.3     1  ZINC001271977984   -0.5300
     14 C14       -10.0836    2.7659   55.6178 C.3     1  ZINC001271977984    0.0000
     15 C15        -8.2940    3.0163   54.0062 C.3     1  ZINC001271977984    0.0400
     16 C16        -8.9485    2.4534   52.7430 C.3     1  ZINC001271977984    0.1200
     17 N17        -8.5991    1.0376   52.6014 N.am    1  ZINC001271977984   -0.6000
     18 C18        -9.5679    0.0035   52.9730 C.3     1  ZINC001271977984    0.0800
     19 C19        -7.3865    0.6867   52.1293 C.2     1  ZINC001271977984    0.6000
     20 O20        -7.0966   -0.4885   52.0117 O.2     1  ZINC001271977984   -0.5300
     21 C21        -6.4116    1.7274   51.7554 C.2     1  ZINC001271977984   -0.0800
     22 C22        -5.1575    1.5228   51.2683 C.2     1  ZINC001271977984    0.0200
     23 O23        -4.6153    2.7336   51.0620 O.3     1  ZINC001271977984   -0.2000
     24 C24        -5.5161    3.6618   51.4144 C.2     1  ZINC001271977984    0.1800
     25 N25        -6.5986    3.0733   51.8268 N.2     1  ZINC001271977984   -0.4600
     26 H26        -7.0497    4.2687   55.7031 H       1  ZINC001271977984    0.0800
     27 H27        -8.3779    4.3099   56.8873 H       1  ZINC001271977984    0.0800
     28 H28        -6.7418    3.8332   57.4012 H       1  ZINC001271977984    0.0700
     29 H29        -8.8152   -1.9544   59.3400 H       1  ZINC001271977984    0.1400
     30 H30       -10.0301   -1.7956   61.4685 H       1  ZINC001271977984    0.1400
     31 H31       -10.8351    0.3819   62.2806 H       1  ZINC001271977984    0.1400
     32 H32       -10.4341    2.4222   60.9724 H       1  ZINC001271977984    0.1400
     33 H33        -9.9899    3.8004   55.9485 H       1  ZINC001271977984    0.0300
     34 H34       -10.7884    2.7121   54.7882 H       1  ZINC001271977984    0.0700
     35 H35       -10.4457    2.1522   56.4427 H       1  ZINC001271977984    0.1100
     36 H36        -8.5561    4.0690   54.1129 H       1  ZINC001271977984    0.0500
     37 H37        -7.2112    2.9174   53.9294 H       1  ZINC001271977984    0.0800
     38 H38       -10.0311    2.5547   52.8187 H       1  ZINC001271977984    0.0900
     39 H39        -8.5919    3.0043   51.8727 H       1  ZINC001271977984    0.0900
     40 H40       -10.1168   -0.3154   52.0869 H       1  ZINC001271977984    0.0600
     41 H41        -9.0421   -0.8499   53.4013 H       1  ZINC001271977984    0.0900
     42 H42       -10.2656    0.4062   53.7073 H       1  ZINC001271977984    0.0700
     43 H43        -4.6875    0.5682   51.0833 H       1  ZINC001271977984    0.2300
     44 H44        -5.3668    4.7301   51.3607 H       1  ZINC001271977984    0.2600
@<TRIPOS>BOND
     1     1     2    1
     2     1    26    1
     3     1    27    1
     4     1    28    1
     5     2     3    1
     6     2     4    1
     7     2    13    1
     8     4    12    1
     9     4     5    2
    10     5     6    1
    11     6    11   ar
    12     6     7   ar
    13     7     8   ar
    14     7    29    1
    15     8     9   ar
    16     8    30    1
    17     9    10   ar
    18     9    31    1
    19    10    11   ar
    20    10    32    1
    21    11    12    1
    22    13    14    1
    23    13    15    1
    24    14    33    1
    25    14    34    1
    26    14    35    1
    27    15    16    1
    28    15    36    1
    29    15    37    1
    30    16    17    1
    31    16    38    1
    32    16    39    1
    33    17    18    1
    34    17    19   am
    35    18    40    1
    36    18    41    1
    37    18    42    1
    38    19    20    2
    39    19    21    1
    40    21    25    1
    41    21    22    2
    42    22    23    1
    43    22    43    1
    44    23    24    1
    45    24    25    2
    46    24    44    1
@<TRIPOS>SUBSTRUCTURE
     1 ZINC001271977984        1 TEMP              0 ****  ****    0 ROOT


##########                                Name:    ZINC000550952205
##########                DOCK_Rotatable_Bonds:                   7
##########                         Heavy_Atoms:                  28
##########                    Molecular_Weight:             407.484
##########                DOCK_Rotatable_Bonds:                   7
##########                       Formal_Charge:        -2.68221e-07
##########                     HBond_Acceptors:                   8
##########                        HBond_Donors:                   2
##########                         Heavy_Atoms:                  28
##########                          Grid_Score:          -27.579546
##########                     Grid_vdw_energy:          -28.340393
##########                      Grid_es_energy:            0.760846
##########           Internal_energy_repulsive:            8.279325

@<TRIPOS>MOLECULE
ZINC000550952205
 51 54 1 0 0
SMALL
USER_CHARGES


@<TRIPOS>ATOM
      1 O1        -13.7241   -3.2403   54.5830 O.2     1  ZINC000550952205   -0.5100
      2 C2        -13.0212   -2.7690   55.4528 C.2     1  ZINC000550952205    0.5100
      3 N3        -13.2078   -3.1280   56.7383 N.am    1  ZINC000550952205   -0.7000
      4 C4        -14.2629   -4.0830   57.0864 C.3     1  ZINC000550952205    0.1200
      5 C5        -15.4398   -3.3353   57.7163 C.3     1  ZINC000550952205   -0.0900
      6 H6        -16.2681   -4.0255   57.8774 H       1  ZINC000550952205    0.1000
      7 C7        -15.0150   -2.7399   59.0313 C.3     1  ZINC000550952205   -0.1300
      8 C8        -16.1554   -2.7240   60.0671 C.3     1  ZINC000550952205   -0.1200
      9 C9        -17.5094   -2.3116   59.4588 C.3     1  ZINC000550952205   -0.1300
     10 C10       -17.3812   -1.1659   58.4919 C.3     1  ZINC000550952205   -0.1500
     11 C11       -17.2408   -1.7402   57.0673 C.3     1  ZINC000550952205    0.3000
     12 F12       -18.1182   -2.8207   56.9261 F       1  ZINC000550952205   -0.2000
     13 F13       -17.5900   -0.7498   56.1430 F       1  ZINC000550952205   -0.2000
     14 C14       -15.8901   -2.1953   56.7801 C.3     1  ZINC000550952205   -0.1700
     15 C15       -11.9457   -1.7957   55.0980 C.2     1  ZINC000550952205    0.5100
     16 O16       -11.0932   -1.5093   55.9133 O.2     1  ZINC000550952205   -0.4900
     17 N17       -11.9216   -1.2352   53.8725 N.am    1  ZINC000550952205   -0.6400
     18 C18       -10.9148   -0.3241   53.5404 C.ar    1  ZINC000550952205    0.1500
     19 C19       -11.0044    1.0006   53.9650 C.ar    1  ZINC000550952205   -0.1200
     20 C20       -10.0318    1.8987   53.6494 C.ar    1  ZINC000550952205   -0.0400
     21 C21        -8.9139    1.5051   52.8858 C.ar    1  ZINC000550952205    0.0800
     22 N22        -7.8575    2.2316   52.4725 N.2     1  ZINC000550952205   -0.4700
     23 C23        -6.9587    1.6397   51.7814 C.2     1  ZINC000550952205    0.1200
     24 C24        -5.7202    2.3122   51.2474 C.3     1  ZINC000550952205   -0.1100
     25 C25        -4.5986    2.6192   52.2418 C.3     1  ZINC000550952205   -0.1500
     26 C26        -4.4281    1.4935   51.2197 C.3     1  ZINC000550952205   -0.1500
     27 S27        -7.3367   -0.0067   51.5402 S.3     1  ZINC000550952205    0.1200
     28 C28        -8.8266    0.1740   52.4614 C.ar    1  ZINC000550952205   -0.1700
     29 C29        -9.8249   -0.7373   52.7947 C.ar    1  ZINC000550952205   -0.0700
     30 H30       -12.6435   -2.7543   57.4332 H       1  ZINC000550952205    0.4200
     31 H31       -14.5991   -4.5971   56.1860 H       1  ZINC000550952205    0.0800
     32 H32       -13.8733   -4.8118   57.7971 H       1  ZINC000550952205    0.0800
     33 H33       -14.1844   -3.3222   59.4301 H       1  ZINC000550952205    0.0700
     34 H34       -14.6775   -1.7173   58.8628 H       1  ZINC000550952205    0.0700
     35 H35       -16.2526   -3.7205   60.4982 H       1  ZINC000550952205    0.0700
     36 H36       -15.8990   -2.0233   60.8616 H       1  ZINC000550952205    0.0700
     37 H37       -17.9368   -3.1676   58.9365 H       1  ZINC000550952205    0.0800
     38 H38       -18.1836   -2.0198   60.2641 H       1  ZINC000550952205    0.0700
     39 H39       -18.2707   -0.5384   58.5476 H       1  ZINC000550952205    0.0900
     40 H40       -16.4979   -0.5764   58.7377 H       1  ZINC000550952205    0.1000
     41 H41       -15.2030   -1.3573   56.8971 H       1  ZINC000550952205    0.1000
     42 H42       -15.8469   -2.5432   55.7480 H       1  ZINC000550952205    0.1000
     43 H43       -12.6027   -1.4641   53.2210 H       1  ZINC000550952205    0.4300
     44 H44       -11.8548    1.3178   54.5504 H       1  ZINC000550952205    0.1400
     45 H45       -10.1173    2.9212   53.9862 H       1  ZINC000550952205    0.1400
     46 H46        -5.8834    3.0228   50.4371 H       1  ZINC000550952205    0.1300
     47 H47        -4.0236    3.5320   52.0858 H       1  ZINC000550952205    0.1000
     48 H48        -4.7565    2.3347   53.2821 H       1  ZINC000550952205    0.1100
     49 H49        -4.4736    0.4684   51.5875 H       1  ZINC000550952205    0.1000
     50 H50        -3.7408    1.6657   50.3913 H       1  ZINC000550952205    0.1100
     51 H51        -9.7501   -1.7644   52.4694 H       1  ZINC000550952205    0.1400
@<TRIPOS>BOND
     1     1     2    2
     2     2     3   am
     3     2    15    1
     4     3     4    1
     5     3    30    1
     6     4     5    1
     7     4    31    1
     8     4    32    1
     9     5     6    1
    10     5    14    1
    11     5     7    1
    12     7     8    1
    13     7    33    1
    14     7    34    1
    15     8     9    1
    16     8    35    1
    17     8    36    1
    18     9    10    1
    19     9    37    1
    20     9    38    1
    21    10    11    1
    22    10    39    1
    23    10    40    1
    24    11    12    1
    25    11    13    1
    26    11    14    1
    27    14    41    1
    28    14    42    1
    29    15    16    2
    30    15    17   am
    31    17    18    1
    32    17    43    1
    33    18    29   ar
    34    18    19   ar
    35    19    20   ar
    36    19    44    1
    37    20    21   ar
    38    20    45    1
    39    21    28   ar
    40    21    22    1
    41    22    23    2
    42    23    24    1
    43    23    27    1
    44    24    26    1
    45    24    25    1
    46    24    46    1
    47    25    26    1
    48    25    47    1
    49    25    48    1
    50    26    49    1
    51    26    50    1
    52    27    28    1
    53    28    29   ar
    54    29    51    1
@<TRIPOS>SUBSTRUCTURE
     1 ZINC000550952205        1 TEMP              0 ****  ****    0 ROOT


##########                                Name:    ZINC001356153960
##########                DOCK_Rotatable_Bonds:                   8
##########                         Heavy_Atoms:                  24
##########                    Molecular_Weight:             334.366
##########                DOCK_Rotatable_Bonds:                   8
##########                       Formal_Charge:           0.0100003
##########                     HBond_Acceptors:                   6
##########                        HBond_Donors:                   1
##########                         Heavy_Atoms:                  24
##########                          Grid_Score:          -27.559843
##########                     Grid_vdw_energy:          -26.614872
##########                      Grid_es_energy:           -0.944971
##########           Internal_energy_repulsive:           14.434609

@<TRIPOS>MOLECULE
ZINC001356153960
 44 46 1 0 0
SMALL
USER_CHARGES


@<TRIPOS>ATOM
      1 O1         -3.6875    5.7839   51.9580 O.2     1  ZINC001356153960   -0.5200
      2 C2         -4.3283    4.8360   52.3623 C.2     1  ZINC001356153960    0.5100
      3 N3         -3.9943    4.2441   53.5262 N.am    1  ZINC001356153960   -0.7000
      4 C4         -2.8616    4.7489   54.3061 C.3     1  ZINC001356153960    0.1300
      5 C5         -3.0459    4.3701   55.7770 C.3     1  ZINC001356153960   -0.0800
      6 H6         -2.2196    4.7559   56.3741 H       1  ZINC001356153960    0.0900
      7 C7         -4.3626    4.8996   56.2960 C.2     1  ZINC001356153960   -0.1700
      8 C8         -4.9890    3.9950   56.9980 C.2     1  ZINC001356153960   -0.1600
      9 C9         -4.1946    2.7113   57.0644 C.3     1  ZINC001356153960   -0.1000
     10 C10        -3.1493    2.8348   55.9290 C.3     1  ZINC001356153960   -0.1200
     11 C11        -5.4838    4.3210   51.5668 C.2     1  ZINC001356153960    0.5100
     12 O12        -6.5395    4.9194   51.5728 O.2     1  ZINC001356153960   -0.5100
     13 N13        -5.3534    3.1918   50.8426 N.am    1  ZINC001356153960   -0.5500
     14 C14        -6.4861    2.6868   50.0627 C.3     1  ZINC001356153960    0.1300
     15 C15        -7.5627    2.1998   50.9979 C.ar    1  ZINC001356153960   -0.1600
     16 C16        -8.7094    2.9487   51.1810 C.ar    1  ZINC001356153960   -0.0300
     17 C17        -9.7002    2.5004   52.0342 C.ar    1  ZINC001356153960   -0.1700
     18 C18        -9.5397    1.3057   52.7152 C.ar    1  ZINC001356153960    0.1400
     19 F19       -10.5059    0.8702   53.5530 F       1  ZINC001356153960   -0.1300
     20 C20        -8.3887    0.5572   52.5369 C.ar    1  ZINC001356153960   -0.2000
     21 C21        -7.3999    1.0043   51.6780 C.ar    1  ZINC001356153960    0.1500
     22 F22        -6.2761    0.2751   51.5034 F       1  ZINC001356153960   -0.1200
     23 C23        -4.0789    2.4693   50.8351 C.3     1  ZINC001356153960    0.0700
     24 C24        -2.8609    3.1916   50.2558 C.3     1  ZINC001356153960   -0.1900
     25 C25        -3.5142    2.0468   49.4774 C.3     1  ZINC001356153960   -0.1800
     26 H26        -4.5039    3.4839   53.8474 H       1  ZINC001356153960    0.4100
     27 H27        -1.9374    4.3094   53.9308 H       1  ZINC001356153960    0.0800
     28 H28        -2.8116    5.8339   54.2138 H       1  ZINC001356153960    0.0800
     29 H29        -4.7363    5.8956   56.1100 H       1  ZINC001356153960    0.1200
     30 H30        -5.9492    4.1442   57.4693 H       1  ZINC001356153960    0.1300
     31 H31        -3.6958    2.6229   58.0295 H       1  ZINC001356153960    0.0800
     32 H32        -4.8447    1.8532   56.8937 H       1  ZINC001356153960    0.0700
     33 H33        -3.5135    2.3743   55.0106 H       1  ZINC001356153960    0.0800
     34 H34        -2.1927    2.4057   56.2272 H       1  ZINC001356153960    0.0800
     35 H35        -6.8824    3.4870   49.4377 H       1  ZINC001356153960    0.0900
     36 H36        -6.1537    1.8631   49.4309 H       1  ZINC001356153960    0.1400
     37 H37        -8.8334    3.8832   50.6539 H       1  ZINC001356153960    0.1600
     38 H38       -10.5978    3.0847   52.1734 H       1  ZINC001356153960    0.1400
     39 H39        -8.2625   -0.3747   53.0679 H       1  ZINC001356153960    0.1500
     40 H40        -3.9128    1.8004   51.6795 H       1  ZINC001356153960    0.1400
     41 H41        -3.0078    4.2043   49.8801 H       1  ZINC001356153960    0.1400
     42 H42        -1.8934    2.9974   50.7188 H       1  ZINC001356153960    0.0900
     43 H43        -2.9763    1.1001   49.4286 H       1  ZINC001356153960    0.1000
     44 H44        -4.0911    2.3064   48.5896 H       1  ZINC001356153960    0.0900
@<TRIPOS>BOND
     1     1     2    2
     2     2     3   am
     3     2    11    1
     4     3     4    1
     5     3    26    1
     6     4     5    1
     7     4    27    1
     8     4    28    1
     9     5     6    1
    10     5    10    1
    11     5     7    1
    12     7     8    2
    13     7    29    1
    14     8     9    1
    15     8    30    1
    16     9    10    1
    17     9    31    1
    18     9    32    1
    19    10    33    1
    20    10    34    1
    21    11    12    2
    22    11    13   am
    23    13    14    1
    24    13    23    1
    25    14    15    1
    26    14    35    1
    27    14    36    1
    28    15    21   ar
    29    15    16   ar
    30    16    17   ar
    31    16    37    1
    32    17    18   ar
    33    17    38    1
    34    18    19    1
    35    18    20   ar
    36    20    21   ar
    37    20    39    1
    38    21    22    1
    39    23    25    1
    40    23    24    1
    41    23    40    1
    42    24    25    1
    43    24    41    1
    44    24    42    1
    45    25    43    1
    46    25    44    1
@<TRIPOS>SUBSTRUCTURE
     1 ZINC001356153960        1 TEMP              0 ****  ****    0 ROOT


##########                                Name:    ZINC000653668607
##########                DOCK_Rotatable_Bonds:                   5
##########                         Heavy_Atoms:                  28
##########                    Molecular_Weight:             379.459
##########                DOCK_Rotatable_Bonds:                   5
##########                       Formal_Charge:          0.00999918
##########                     HBond_Acceptors:                   6
##########                        HBond_Donors:                   2
##########                         Heavy_Atoms:                  28
##########                          Grid_Score:          -27.549232
##########                     Grid_vdw_energy:          -27.355984
##########                      Grid_es_energy:           -0.193249
##########           Internal_energy_repulsive:            9.016293

@<TRIPOS>MOLECULE
ZINC000653668607
 53 56 1 0 0
SMALL
USER_CHARGES


@<TRIPOS>ATOM
      1 C1         -8.9416    3.5127   56.9922 C.3     1  ZINC000653668607    0.0300
      2 O2         -9.1716    4.2176   55.7706 O.3     1  ZINC000653668607   -0.3200
      3 C3         -8.3113    3.9750   54.7470 C.ar    1  ZINC000653668607    0.1300
      4 C4         -7.1000    4.6477   54.6800 C.ar    1  ZINC000653668607   -0.2000
      5 C5         -6.2330    4.3921   53.6388 C.ar    1  ZINC000653668607   -0.0800
      6 C6         -6.5610    3.4671   52.6557 C.ar    1  ZINC000653668607   -0.1000
      7 C7         -5.5589    3.2286   51.5564 C.3     1  ZINC000653668607   -0.0800
      8 C8         -6.2225    2.5427   50.3640 C.3     1  ZINC000653668607   -0.1200
      9 C9         -6.9838    1.3137   50.8749 C.3     1  ZINC000653668607   -0.1100
     10 C10        -8.1891    1.7942   51.6805 C.3     1  ZINC000653668607   -0.0600
     11 H11        -8.9119    2.2538   51.0064 H       1  ZINC000653668607    0.1000
     12 C12        -8.8297    0.6155   52.3671 C.2     1  ZINC000653668607    0.5200
     13 O13        -8.1408   -0.1943   52.9508 O.2     1  ZINC000653668607   -0.5100
     14 N14       -10.1681    0.4612   52.3326 N.am    1  ZINC000653668607   -0.6700
     15 C15       -10.7629   -0.6331   52.9701 C.ar    1  ZINC000653668607    0.1500
     16 C16       -11.1540   -1.7411   52.2292 C.ar    1  ZINC000653668607   -0.1100
     17 C17       -11.7415   -2.8222   52.8580 C.ar    1  ZINC000653668607   -0.0900
     18 C18       -11.9419   -2.8049   54.2247 C.ar    1  ZINC000653668607   -0.1200
     19 C19       -11.5535   -1.6995   54.9713 C.ar    1  ZINC000653668607    0.1700
     20 N20       -11.7573   -1.6825   56.3558 N.am    1  ZINC000653668607   -0.5800
     21 C21       -12.5654   -0.6157   56.9485 C.3     1  ZINC000653668607    0.1100
     22 C22       -13.2394   -1.1426   58.2198 C.3     1  ZINC000653668607   -0.1500
     23 C23       -12.1561   -1.6894   59.1556 C.3     1  ZINC000653668607    0.1100
     24 N24       -11.3703   -2.6981   58.4431 N.am    1  ZINC000653668607   -0.7400
     25 C25       -11.2127   -2.6474   57.1119 C.2     1  ZINC000653668607    0.7100
     26 O26       -10.5413   -3.5044   56.5705 O.2     1  ZINC000653668607   -0.5800
     27 C27       -10.9576   -0.6151   54.3440 C.ar    1  ZINC000653668607   -0.1300
     28 C28        -7.7658    2.8021   52.7170 C.ar    1  ZINC000653668607   -0.0300
     29 C29        -8.6369    3.0511   53.7684 C.ar    1  ZINC000653668607   -0.1500
     30 H30        -8.9995    2.4397   56.8090 H       1  ZINC000653668607    0.0600
     31 H31        -7.9524    3.7630   57.3755 H       1  ZINC000653668607    0.0600
     32 H32        -9.6976    3.7977   57.7240 H       1  ZINC000653668607    0.1000
     33 H33        -6.8373    5.3688   55.4398 H       1  ZINC000653668607    0.1300
     34 H34        -5.2901    4.9162   53.5869 H       1  ZINC000653668607    0.1300
     35 H35        -5.1429    4.1837   51.2358 H       1  ZINC000653668607    0.0800
     36 H36        -4.7555    2.5958   51.9335 H       1  ZINC000653668607    0.0800
     37 H37        -6.9176    3.2317   49.8843 H       1  ZINC000653668607    0.0700
     38 H38        -5.4610    2.2316   49.6489 H       1  ZINC000653668607    0.0800
     39 H39        -7.3224    0.7142   50.0299 H       1  ZINC000653668607    0.0700
     40 H40        -6.3313    0.7162   51.5116 H       1  ZINC000653668607    0.0800
     41 H41       -10.7191    1.1089   51.8659 H       1  ZINC000653668607    0.4100
     42 H42       -10.9990   -1.7574   51.1605 H       1  ZINC000653668607    0.1400
     43 H43       -12.0450   -3.6823   52.2797 H       1  ZINC000653668607    0.1300
     44 H44       -12.4014   -3.6514   54.7133 H       1  ZINC000653668607    0.1200
     45 H45       -11.9248    0.2298   57.1995 H       1  ZINC000653668607    0.0700
     46 H46       -13.3275   -0.2979   56.2371 H       1  ZINC000653668607    0.0900
     47 H47       -13.7744   -0.3315   58.7136 H       1  ZINC000653668607    0.1000
     48 H48       -13.9361   -1.9401   57.9611 H       1  ZINC000653668607    0.0800
     49 H49       -11.5035   -0.8757   59.4720 H       1  ZINC000653668607    0.0700
     50 H50       -12.6243   -2.1428   60.0294 H       1  ZINC000653668607    0.0900
     51 H51       -10.9582   -3.4199   58.9431 H       1  ZINC000653668607    0.4200
     52 H52       -10.6545    0.2451   54.9223 H       1  ZINC000653668607    0.1300
     53 H53        -9.5780    2.5239   53.8209 H       1  ZINC000653668607    0.1200
@<TRIPOS>BOND
     1     1     2    1
     2     1    30    1
     3     1    31    1
     4     1    32    1
     5     2     3    1
     6     3    29   ar
     7     3     4   ar
     8     4     5   ar
     9     4    33    1
    10     5     6   ar
    11     5    34    1
    12     6    28   ar
    13     6     7    1
    14     7     8    1
    15     7    35    1
    16     7    36    1
    17     8     9    1
    18     8    37    1
    19     8    38    1
    20     9    10    1
    21     9    39    1
    22     9    40    1
    23    10    11    1
    24    10    12    1
    25    10    28    1
    26    12    13    2
    27    12    14   am
    28    14    15    1
    29    14    41    1
    30    15    27   ar
    31    15    16   ar
    32    16    17   ar
    33    16    42    1
    34    17    18   ar
    35    17    43    1
    36    18    19   ar
    37    18    44    1
    38    19    20    1
    39    19    27   ar
    40    20    25   am
    41    20    21    1
    42    21    22    1
    43    21    45    1
    44    21    46    1
    45    22    23    1
    46    22    47    1
    47    22    48    1
    48    23    24    1
    49    23    49    1
    50    23    50    1
    51    24    25   am
    52    24    51    1
    53    25    26    2
    54    27    52    1
    55    28    29   ar
    56    29    53    1
@<TRIPOS>SUBSTRUCTURE
     1 ZINC000653668607        1 TEMP              0 ****  ****    0 ROOT


##########                                Name:    ZINC000854704989
##########                DOCK_Rotatable_Bonds:                   5
##########                         Heavy_Atoms:                  22
##########                    Molecular_Weight:             365.227
##########                DOCK_Rotatable_Bonds:                   5
##########                       Formal_Charge:        -1.78814e-07
##########                     HBond_Acceptors:                   5
##########                        HBond_Donors:                   1
##########                         Heavy_Atoms:                  22
##########                          Grid_Score:          -27.544502
##########                     Grid_vdw_energy:          -27.434355
##########                      Grid_es_energy:           -0.110148
##########           Internal_energy_repulsive:            5.862688

@<TRIPOS>MOLECULE
ZINC000854704989
 39 41 1 0 0
SMALL
USER_CHARGES


@<TRIPOS>ATOM
      1 O1        -11.0969   -2.6626   53.2261 O.2     1  ZINC000854704989   -0.5300
      2 C2        -11.2764   -1.7668   54.0279 C.2     1  ZINC000854704989    0.5700
      3 N3        -11.2468   -0.4823   53.6210 N.am    1  ZINC000854704989   -0.7300
      4 C4        -10.9923   -0.1654   52.2136 C.3     1  ZINC000854704989    0.2000
      5 C5         -9.5123    0.0231   52.0008 C.2     1  ZINC000854704989   -0.0500
      6 C6         -8.8273    1.1897   52.0597 C.2     1  ZINC000854704989   -0.1700
      7 C7         -7.4903    0.8150   51.7880 C.2     1  ZINC000854704989    0.0000
      8 Br8        -5.9862    1.9586   51.7111 Br      1  ZINC000854704989    0.0600
      9 N9         -7.5010   -0.4742   51.6017 N.2     1  ZINC000854704989   -0.3200
     10 O10        -8.6138   -0.9317   51.7217 O.3     1  ZINC000854704989    0.1300
     11 C11       -11.5333   -2.0865   55.4484 C.ar    1  ZINC000854704989   -0.1300
     12 C12       -12.2185   -3.2529   55.7914 C.ar    1  ZINC000854704989   -0.0900
     13 C13       -12.4546   -3.5456   57.1189 C.ar    1  ZINC000854704989   -0.1200
     14 C14       -12.0142   -2.6855   58.1089 C.ar    1  ZINC000854704989   -0.0900
     15 C15       -11.3342   -1.5273   57.7755 C.ar    1  ZINC000854704989   -0.0800
     16 C16       -10.8580   -0.5963   58.8607 C.3     1  ZINC000854704989   -0.0800
     17 H17       -10.3878    0.2778   58.4102 H       1  ZINC000854704989    0.0900
     18 C18        -9.8436   -1.3224   59.7495 C.3     1  ZINC000854704989   -0.1100
     19 C19        -9.4259   -0.3929   60.8932 C.3     1  ZINC000854704989   -0.1600
     20 C20       -10.6725    0.0408   61.6689 C.3     1  ZINC000854704989    0.0600
     21 O21       -11.5875    0.6816   60.7778 O.3     1  ZINC000854704989   -0.3800
     22 C22       -12.0495   -0.1534   59.7140 C.3     1  ZINC000854704989    0.0700
     23 C23       -11.0866   -1.2259   56.4525 C.ar    1  ZINC000854704989   -0.0500
     24 H24       -11.3940    0.2324   54.2601 H       1  ZINC000854704989    0.4000
     25 H25       -11.3482   -0.9831   51.5869 H       1  ZINC000854704989    0.1100
     26 H26       -11.5174    0.7518   51.9470 H       1  ZINC000854704989    0.1000
     27 H27        -9.2122    2.1775   52.2659 H       1  ZINC000854704989    0.1900
     28 H28       -12.5635   -3.9248   55.0194 H       1  ZINC000854704989    0.1200
     29 H29       -12.9846   -4.4479   57.3857 H       1  ZINC000854704989    0.1300
     30 H30       -12.2021   -2.9189   59.1466 H       1  ZINC000854704989    0.1300
     31 H31       -10.2980   -2.2241   60.1599 H       1  ZINC000854704989    0.0700
     32 H32        -8.9674   -1.5904   59.1590 H       1  ZINC000854704989    0.0700
     33 H33        -8.7461   -0.9208   61.5619 H       1  ZINC000854704989    0.0800
     34 H34        -8.9271    0.4859   60.4846 H       1  ZINC000854704989    0.0700
     35 H35       -11.1483   -0.8345   62.1110 H       1  ZINC000854704989    0.0500
     36 H36       -10.3860    0.7363   62.4578 H       1  ZINC000854704989    0.1000
     37 H37       -12.7547    0.4021   59.0959 H       1  ZINC000854704989    0.1000
     38 H38       -12.5435   -1.0317   60.1296 H       1  ZINC000854704989    0.0500
     39 H39       -10.5554   -0.3218   56.1936 H       1  ZINC000854704989    0.1400
@<TRIPOS>BOND
     1     1     2    2
     2     2     3   am
     3     2    11    1
     4     3     4    1
     5     3    24    1
     6     4     5    1
     7     4    25    1
     8     4    26    1
     9     5    10    1
    10     5     6    2
    11     6     7    1
    12     6    27    1
    13     7     8    1
    14     7     9    2
    15     9    10    1
    16    11    23   ar
    17    11    12   ar
    18    12    13   ar
    19    12    28    1
    20    13    14   ar
    21    13    29    1
    22    14    15   ar
    23    14    30    1
    24    15    16    1
    25    15    23   ar
    26    16    17    1
    27    16    22    1
    28    16    18    1
    29    18    19    1
    30    18    31    1
    31    18    32    1
    32    19    20    1
    33    19    33    1
    34    19    34    1
    35    20    21    1
    36    20    35    1
    37    20    36    1
    38    21    22    1
    39    22    37    1
    40    22    38    1
    41    23    39    1
@<TRIPOS>SUBSTRUCTURE
     1 ZINC000854704989        1 TEMP              0 ****  ****    0 ROOT


##########                                Name:    ZINC000010935976
##########                DOCK_Rotatable_Bonds:                   3
##########                         Heavy_Atoms:                  26
##########                    Molecular_Weight:             391.558
##########                DOCK_Rotatable_Bonds:                   3
##########                       Formal_Charge:         -0.00999979
##########                     HBond_Acceptors:                   7
##########                        HBond_Donors:                   1
##########                         Heavy_Atoms:                  26
##########                          Grid_Score:          -27.544073
##########                     Grid_vdw_energy:          -27.566286
##########                      Grid_es_energy:            0.022212
##########           Internal_energy_repulsive:          126.231598

@<TRIPOS>MOLECULE
ZINC000010935976
 51 54 1 0 0
SMALL
USER_CHARGES


@<TRIPOS>ATOM
      1 C1        -12.7998   -3.0831   54.8931 C.3     1  ZINC000010935976   -0.0800
      2 C2        -11.8394   -1.9462   54.6562 C.2     1  ZINC000010935976   -0.2100
      3 C3        -11.5291   -1.0345   55.5570 C.2     1  ZINC000010935976   -0.0400
      4 C4        -12.1136   -1.0338   56.9461 C.3     1  ZINC000010935976   -0.1000
      5 C5        -10.5809   -0.0321   55.1075 C.2     1  ZINC000010935976   -0.2300
      6 C6        -10.1833   -0.2412   53.7888 C.2     1  ZINC000010935976    0.0900
      7 N7         -9.3028    0.6030   53.2156 N.2     1  ZINC000010935976   -0.4900
      8 C8         -8.8051    1.6248   53.8698 C.2     1  ZINC000010935976    0.3400
      9 S9         -7.6586    2.6892   53.0590 S.3     1  ZINC000010935976    0.0500
     10 C10        -8.0266    2.2907   51.3322 C.3     1  ZINC000010935976   -0.1000
     11 H11        -9.0391    1.8941   51.2557 H       1  ZINC000010935976    0.1400
     12 C12        -7.0270    1.2510   50.8199 C.3     1  ZINC000010935976   -0.1000
     13 C13        -5.6586    1.4701   51.4392 C.3     1  ZINC000010935976   -0.1300
     14 C14        -4.9890    2.7611   51.0048 C.3     1  ZINC000010935976   -0.1400
     15 C15        -5.7485    3.9763   51.5406 C.3     1  ZINC000010935976    0.0700
     16 N16        -6.8216    4.3168   50.5925 N.am    1  ZINC000010935976   -0.7200
     17 C17        -7.9040    3.5395   50.4846 C.2     1  ZINC000010935976    0.5400
     18 O18        -8.7838    3.8334   49.7033 O.2     1  ZINC000010935976   -0.5200
     19 N19        -9.1543    1.8839   55.1635 N.am    1  ZINC000010935976   -0.5100
     20 C20        -8.5757    3.0365   55.8585 C.3     1  ZINC000010935976    0.1200
     21 C21        -9.6286    4.1560   55.9925 C.3     1  ZINC000010935976   -0.1300
     22 C22       -10.2271    3.9472   57.4057 C.3     1  ZINC000010935976   -0.1300
     23 C23        -8.9913    3.5332   58.2427 C.3     1  ZINC000010935976   -0.1100
     24 C24        -8.1705    2.6405   57.2891 C.3     1  ZINC000010935976   -0.1200
     25 C25       -10.0297    1.0849   55.8040 C.2     1  ZINC000010935976    0.5600
     26 O26       -10.3449    1.3115   56.9596 O.2     1  ZINC000010935976   -0.5000
     27 S27       -10.9856   -1.6703   53.1499 S.3     1  ZINC000010935976    0.2100
     28 H28       -12.8731   -3.6908   53.9912 H       1  ZINC000010935976    0.0700
     29 H29       -12.4385   -3.6981   55.7173 H       1  ZINC000010935976    0.0800
     30 H30       -13.7825   -2.6826   55.1422 H       1  ZINC000010935976    0.0800
     31 H31       -11.4778   -1.6218   57.6081 H       1  ZINC000010935976    0.0700
     32 H32       -12.1733   -0.0098   57.3147 H       1  ZINC000010935976    0.0800
     33 H33       -13.1124   -1.4695   56.9202 H       1  ZINC000010935976    0.0700
     34 H34        -7.3824    0.2535   51.0786 H       1  ZINC000010935976    0.0900
     35 H35        -6.9477    1.3330   49.7359 H       1  ZINC000010935976    0.0900
     36 H36        -5.7653    1.4813   52.5238 H       1  ZINC000010935976    0.0700
     37 H37        -5.0146    0.6347   51.1645 H       1  ZINC000010935976    0.0800
     38 H38        -3.9677    2.7807   51.3849 H       1  ZINC000010935976    0.0800
     39 H39        -4.9663    2.8043   49.9160 H       1  ZINC000010935976    0.0700
     40 H40        -6.1810    3.7379   52.5124 H       1  ZINC000010935976    0.1100
     41 H41        -5.0656    4.8202   51.6387 H       1  ZINC000010935976    0.0900
     42 H42        -6.7445    5.1125   50.0430 H       1  ZINC000010935976    0.4000
     43 H43        -7.7067    3.4037   55.3124 H       1  ZINC000010935976    0.1000
     44 H44        -9.1555    5.1353   55.9195 H       1  ZINC000010935976    0.0800
     45 H45       -10.4008    4.0466   55.2312 H       1  ZINC000010935976    0.0700
     46 H46       -10.6567    4.8748   57.7842 H       1  ZINC000010935976    0.0600
     47 H47       -10.9714    3.1511   57.3963 H       1  ZINC000010935976    0.1100
     48 H48        -8.4153    4.4118   58.5329 H       1  ZINC000010935976    0.0600
     49 H49        -9.2984    2.9692   59.1233 H       1  ZINC000010935976    0.0700
     50 H50        -8.4045    1.5908   57.4663 H       1  ZINC000010935976    0.0800
     51 H51        -7.1050    2.8163   57.4375 H       1  ZINC000010935976    0.0700
@<TRIPOS>BOND
     1     1     2    1
     2     1    28    1
     3     1    29    1
     4     1    30    1
     5     2    27    1
     6     2     3    2
     7     3     4    1
     8     3     5    1
     9     4    31    1
    10     4    32    1
    11     4    33    1
    12     5    25    1
    13     5     6    2
    14     6     7    1
    15     6    27    1
    16     7     8    2
    17     8     9    1
    18     8    19    1
    19     9    10    1
    20    10    11    1
    21    10    17    1
    22    10    12    1
    23    12    13    1
    24    12    34    1
    25    12    35    1
    26    13    14    1
    27    13    36    1
    28    13    37    1
    29    14    15    1
    30    14    38    1
    31    14    39    1
    32    15    16    1
    33    15    40    1
    34    15    41    1
    35    16    17   am
    36    16    42    1
    37    17    18    2
    38    19    20    1
    39    19    25   am
    40    20    24    1
    41    20    21    1
    42    20    43    1
    43    21    22    1
    44    21    44    1
    45    21    45    1
    46    22    23    1
    47    22    46    1
    48    22    47    1
    49    23    24    1
    50    23    48    1
    51    23    49    1
    52    24    50    1
    53    24    51    1
    54    25    26    2
@<TRIPOS>SUBSTRUCTURE
     1 ZINC000010935976        1 TEMP              0 ****  ****    0 ROOT


##########                                Name:    ZINC001060620810
##########                DOCK_Rotatable_Bonds:                   5
##########                         Heavy_Atoms:                  24
##########                    Molecular_Weight:             332.421
##########                DOCK_Rotatable_Bonds:                   5
##########                       Formal_Charge:           0.0299998
##########                     HBond_Acceptors:                   6
##########                        HBond_Donors:                   2
##########                         Heavy_Atoms:                  24
##########                          Grid_Score:          -27.512461
##########                     Grid_vdw_energy:          -27.479403
##########                      Grid_es_energy:           -0.033059
##########           Internal_energy_repulsive:           10.260928

@<TRIPOS>MOLECULE
ZINC001060620810
 49 52 1 0 0
SMALL
USER_CHARGES


@<TRIPOS>ATOM
      1 O1        -10.3825   -1.3858   52.4028 O.2     1  ZINC001060620810   -0.5400
      2 C2        -10.5117   -0.6843   53.3838 C.2     1  ZINC001060620810    0.5500
      3 N3         -9.8906    0.5103   53.4445 N.am    1  ZINC001060620810   -0.7200
      4 C4         -9.0610    0.9623   52.3248 C.3     1  ZINC001060620810    0.1400
      5 C5         -8.9657    2.4891   52.3444 C.3     1  ZINC001060620810   -0.1300
      6 C6         -8.0992    2.9612   51.1752 C.3     1  ZINC001060620810   -0.1300
      7 C7         -6.6978    2.3610   51.3040 C.3     1  ZINC001060620810    0.1600
      8 N8         -6.0942    2.7964   52.5658 N.pl3   1  ZINC001060620810   -0.6900
      9 C9         -4.7207    2.9507   52.6599 C.ar    1  ZINC001060620810    0.5600
     10 N10        -3.9705    2.7231   51.5923 N.ar    1  ZINC001060620810   -0.5400
     11 C11        -2.6563    2.8656   51.6458 C.ar    1  ZINC001060620810    0.1700
     12 C12        -2.0656    3.2483   52.8419 C.ar    1  ZINC001060620810   -0.0700
     13 F13        -0.7261    3.3987   52.9336 F       1  ZINC001060620810   -0.1300
     14 C14        -2.8817    3.4733   53.9416 C.ar    1  ZINC001060620810    0.1800
     15 N15        -4.1895    3.3171   53.8166 N.ar    1  ZINC001060620810   -0.5500
     16 C16        -6.7930    0.8341   51.2843 C.3     1  ZINC001060620810   -0.1200
     17 C17        -7.6595    0.3621   52.4537 C.3     1  ZINC001060620810   -0.1300
     18 C18       -11.3666   -1.1485   54.5348 C.3     1  ZINC001060620810   -0.1500
     19 C19       -12.1251   -0.0594   55.2820 C.3     1  ZINC001060620810   -0.1500
     20 C20       -10.9147   -0.7083   55.9184 C.3     1  ZINC001060620810   -0.1100
     21 H21       -10.0197   -0.0892   55.9778 H       1  ZINC001060620810    0.1100
     22 C22       -11.1500   -1.6004   57.1333 C.3     1  ZINC001060620810   -0.0900
     23 C23       -11.4042   -3.0432   56.6963 C.3     1  ZINC001060620810   -0.1200
     24 C24       -12.5416   -3.0491   55.6685 C.3     1  ZINC001060620810   -0.1200
     25 C25       -12.0019   -2.5164   54.3412 C.3     1  ZINC001060620810   -0.0800
     26 H26        -9.9929    1.0707   54.2295 H       1  ZINC001060620810    0.4000
     27 H27        -9.5100    0.6383   51.3859 H       1  ZINC001060620810    0.0900
     28 H28        -9.9641    2.9168   52.2527 H       1  ZINC001060620810    0.0700
     29 H29        -8.5166    2.8131   53.2833 H       1  ZINC001060620810    0.0600
     30 H30        -8.0314    4.0490   51.1892 H       1  ZINC001060620810    0.0700
     31 H31        -8.5483    2.6373   50.2363 H       1  ZINC001060620810    0.0800
     32 H32        -6.0805    2.6973   50.4709 H       1  ZINC001060620810    0.1000
     33 H33        -6.6564    2.9767   53.3355 H       1  ZINC001060620810    0.4100
     34 H34        -2.0504    2.6821   50.7709 H       1  ZINC001060620810    0.1800
     35 H35        -2.4546    3.7718   54.8875 H       1  ZINC001060620810    0.1800
     36 H36        -5.7946    0.4066   51.3760 H       1  ZINC001060620810    0.0800
     37 H37        -7.2421    0.5102   50.3454 H       1  ZINC001060620810    0.0900
     38 H38        -7.2105    0.6861   53.3925 H       1  ZINC001060620810    0.0700
     39 H39        -7.7274   -0.7257   52.4396 H       1  ZINC001060620810    0.0800
     40 H40       -12.0115    0.9659   54.9302 H       1  ZINC001060620810    0.1000
     41 H41       -13.1057   -0.3137   55.6842 H       1  ZINC001060620810    0.1100
     42 H42       -12.0221   -1.2264   57.6695 H       1  ZINC001060620810    0.0700
     43 H43       -10.2811   -1.5697   57.7907 H       1  ZINC001060620810    0.0700
     44 H44       -11.6890   -3.6427   57.5609 H       1  ZINC001060620810    0.0700
     45 H45       -10.5009   -3.4534   56.2448 H       1  ZINC001060620810    0.0700
     46 H46       -13.3528   -2.4097   56.0168 H       1  ZINC001060620810    0.0700
     47 H47       -12.9070   -4.0671   55.5330 H       1  ZINC001060620810    0.0700
     48 H48       -12.8211   -2.4347   53.6267 H       1  ZINC001060620810    0.0700
     49 H49       -11.2544   -3.2087   53.9537 H       1  ZINC001060620810    0.0700
@<TRIPOS>BOND
     1     1     2    2
     2     2     3   am
     3     2    18    1
     4     3     4    1
     5     3    26    1
     6     4    17    1
     7     4     5    1
     8     4    27    1
     9     5     6    1
    10     5    28    1
    11     5    29    1
    12     6     7    1
    13     6    30    1
    14     6    31    1
    15     7     8    1
    16     7    16    1
    17     7    32    1
    18     8     9    1
    19     8    33    1
    20     9    15   ar
    21     9    10   ar
    22    10    11   ar
    23    11    12   ar
    24    11    34    1
    25    12    13    1
    26    12    14   ar
    27    14    15   ar
    28    14    35    1
    29    16    17    1
    30    16    36    1
    31    16    37    1
    32    17    38    1
    33    17    39    1
    34    18    20    1
    35    18    25    1
    36    18    19    1
    37    19    20    1
    38    19    40    1
    39    19    41    1
    40    20    21    1
    41    20    22    1
    42    22    23    1
    43    22    42    1
    44    22    43    1
    45    23    24    1
    46    23    44    1
    47    23    45    1
    48    24    25    1
    49    24    46    1
    50    24    47    1
    51    25    48    1
    52    25    49    1
@<TRIPOS>SUBSTRUCTURE
     1 ZINC001060620810        1 TEMP              0 ****  ****    0 ROOT


##########                                Name:    ZINC000338927927
##########                DOCK_Rotatable_Bonds:                   9
##########                         Heavy_Atoms:                  23
##########                    Molecular_Weight:             336.286
##########                DOCK_Rotatable_Bonds:                   9
##########                       Formal_Charge:         -0.00999999
##########                     HBond_Acceptors:                   9
##########                        HBond_Donors:                   2
##########                         Heavy_Atoms:                  23
##########                          Grid_Score:          -27.501383
##########                     Grid_vdw_energy:          -24.075550
##########                      Grid_es_energy:           -3.425833
##########           Internal_energy_repulsive:           14.045636

@<TRIPOS>MOLECULE
ZINC000338927927
 39 39 1 0 0
SMALL
USER_CHARGES


@<TRIPOS>ATOM
      1 C1        -11.9235    3.5549   50.1047 C.3     1  <0>        -0.1600
      2 C2        -11.2422    4.9244   50.0721 C.3     1  <0>        -0.1100
      3 C3         -9.9445    4.8293   49.2672 C.3     1  <0>        -0.1000
      4 H4        -10.1415    4.3312   48.3179 H       1  <0>         0.1400
      5 C5         -8.9261    4.0388   50.0475 C.2     1  <0>         0.5200
      6 O6         -8.9126    4.0959   51.2589 O.2     1  <0>        -0.4700
      7 N7         -8.0301    3.2685   49.3991 N.am    1  <0>        -0.6700
      8 C8         -7.0845    2.5345   50.1235 C.ar    1  <0>         0.2200
      9 C9         -7.4839    1.4369   50.8747 C.ar    1  <0>        -0.2300
     10 C10        -6.5489    0.7104   51.5916 C.ar    1  <0>         0.1700
     11 F11        -6.9397   -0.3571   52.3217 F       1  <0>        -0.1300
     12 C12        -5.2147    1.0754   51.5610 C.ar    1  <0>        -0.2500
     13 C13        -4.8109    2.1728   50.8106 C.ar    1  <0>         0.2600
     14 N14        -3.4640    2.5413   50.7804 N.pl3   1  <0>        -0.7400
     15 C15        -2.8409    3.1377   51.9646 C.3     1  <0>         0.0800
     16 C16        -2.2587    4.5048   51.6007 C.3     1  <0>         0.4500
     17 F17        -3.2845    5.3444   51.1533 F       1  <0>        -0.1800
     18 F18        -1.6528    5.0690   52.7285 F       1  <0>        -0.1700
     19 F19        -1.3063    4.3514   50.5873 F       1  <0>        -0.1800
     20 C20        -5.7461    2.8994   50.0871 C.ar    1  <0>        -0.2000
     21 C21        -9.4125    6.2150   49.0064 C.2     1  <0>         0.4600
     22 O22        -8.6504    6.7272   49.7917 O.2     1  <0>        -0.4600
     23 O23        -9.7853    6.8801   47.9018 O.3     1  <0>        -0.3500
     24 C24       -10.7035    6.2035   47.0033 C.3     1  <0>         0.0300
     25 H25       -11.2583    2.8291   50.5723 H       1  <0>         0.0600
     26 H26       -12.8481    3.6227   50.6782 H       1  <0>         0.0600
     27 H27       -12.1498    3.2373   49.0868 H       1  <0>         0.0800
     28 H28       -11.9075    5.6502   49.6046 H       1  <0>         0.0800
     29 H29       -11.0159    5.2419   51.0900 H       1  <0>         0.0800
     30 H30        -8.0410    3.2228   48.4303 H       1  <0>         0.4200
     31 H31        -8.5248    1.1503   50.8999 H       1  <0>         0.1400
     32 H32        -4.4868    0.5072   52.1210 H       1  <0>         0.1400
     33 H33        -2.9412    2.4024   49.9753 H       1  <0>         0.4100
     34 H34        -3.5898    3.2583   52.7473 H       1  <0>         0.1100
     35 H35        -2.0432    2.4866   52.3222 H       1  <0>         0.1100
     36 H36        -5.4339    3.7527   49.5033 H       1  <0>         0.1500
     37 H37       -10.9224    6.8498   46.1531 H       1  <0>         0.1000
     38 H38       -10.2493    5.2782   46.6487 H       1  <0>         0.0600
     39 H39       -11.6281    5.9747   47.5332 H       1  <0>         0.0600
@<TRIPOS>BOND
     1     1     2    1
     2     1    25    1
     3     1    26    1
     4     1    27    1
     5     2     3    1
     6     2    28    1
     7     2    29    1
     8     3     4    1
     9     3     5    1
    10     3    21    1
    11     5     6    2
    12     5     7   am
    13     7     8    1
    14     7    30    1
    15     8    20   ar
    16     8     9   ar
    17     9    10   ar
    18     9    31    1
    19    10    11    1
    20    10    12   ar
    21    12    13   ar
    22    12    32    1
    23    13    14    1
    24    13    20   ar
    25    14    15    1
    26    14    33    1
    27    15    16    1
    28    15    34    1
    29    15    35    1
    30    16    17    1
    31    16    18    1
    32    16    19    1
    33    20    36    1
    34    21    22    2
    35    21    23    1
    36    23    24    1
    37    24    37    1
    38    24    38    1
    39    24    39    1
@<TRIPOS>SUBSTRUCTURE
     1 <0>         1 TEMP              0 ****  ****    0 ROOT


##########                                Name:    ZINC001067560454
##########                DOCK_Rotatable_Bonds:                   4
##########                         Heavy_Atoms:                  25
##########                    Molecular_Weight:             342.444
##########                DOCK_Rotatable_Bonds:                   4
##########                       Formal_Charge:          0.00999971
##########                     HBond_Acceptors:                   7
##########                        HBond_Donors:                   1
##########                         Heavy_Atoms:                  25
##########                          Grid_Score:          -27.495777
##########                     Grid_vdw_energy:          -25.655397
##########                      Grid_es_energy:           -1.840379
##########           Internal_energy_repulsive:           15.525153

@<TRIPOS>MOLECULE
ZINC001067560454
 51 54 1 0 0
SMALL
USER_CHARGES


@<TRIPOS>ATOM
      1 C1         -9.9381   -1.4018   59.5218 C.3     1  ZINC001067560454   -0.1500
      2 C2        -10.5671   -0.7767   60.7686 C.3     1  ZINC001067560454    0.1000
      3 H3        -11.0460   -1.5550   61.3628 H       1  ZINC001067560454    0.0600
      4 C4         -9.4791   -0.0957   61.6019 C.3     1  ZINC001067560454   -0.1200
      5 C5        -10.1159    0.5454   62.8379 C.3     1  ZINC001067560454    0.1400
      6 H6        -10.5709   -0.2285   63.4562 H       1  ZINC001067560454    0.0900
      7 N7         -9.0876    1.2472   63.6101 N.am    1  ZINC001067560454   -0.7200
      8 C8         -9.3600    1.6818   64.8565 C.2     1  ZINC001067560454    0.5400
      9 O9        -10.4569    1.4930   65.3382 O.2     1  ZINC001067560454   -0.5300
     10 C10        -8.3016    2.4021   65.6515 C.3     1  ZINC001067560454   -0.1100
     11 C11        -8.4937    3.9200   65.6579 C.3     1  ZINC001067560454   -0.1300
     12 C12        -8.0661    1.8032   67.0482 C.3     1  ZINC001067560454   -0.1200
     13 C13        -7.0227    0.8838   66.3917 C.3     1  ZINC001067560454   -0.1400
     14 C14        -6.8682    1.9639   65.3080 C.3     1  ZINC001067560454   -0.1200
     15 C15       -11.1902    1.5405   62.3908 C.3     1  ZINC001067560454   -0.1200
     16 C16       -12.2287    0.8122   61.5346 C.3     1  ZINC001067560454    0.0600
     17 N17       -11.5699    0.2172   60.3648 N.3     1  ZINC001067560454   -0.4900
     18 C18       -12.4984   -0.3379   59.5016 C.ar    1  ZINC001067560454    0.4400
     19 C19       -13.3837   -1.3358   59.9430 C.ar    1  ZINC001067560454   -0.0800
     20 N20       -13.5927   -1.9706   61.1213 N.2     1  ZINC001067560454   -0.4700
     21 C21       -14.5595   -2.8309   60.9842 C.2     1  ZINC001067560454    0.2700
     22 N22       -15.0317   -2.8011   59.7058 N.pl3   1  ZINC001067560454   -0.4800
     23 C23       -16.1172   -3.6219   59.1632 C.3     1  ZINC001067560454    0.0800
     24 C24       -14.3046   -1.8609   59.0205 C.ar    1  ZINC001067560454    0.2800
     25 N25       -14.3055   -1.3987   57.7745 N.ar    1  ZINC001067560454   -0.5200
     26 C26       -13.4572   -0.4621   57.4057 C.ar    1  ZINC001067560454    0.3300
     27 N27       -12.5771    0.0645   58.2374 N.ar    1  ZINC001067560454   -0.5100
     28 H28        -9.4593   -0.6237   58.9274 H       1  ZINC001067560454    0.0700
     29 H29        -9.1941   -2.1399   59.8213 H       1  ZINC001067560454    0.0700
     30 H30       -10.7130   -1.8872   58.9284 H       1  ZINC001067560454    0.0500
     31 H31        -8.7431   -0.8366   61.9145 H       1  ZINC001067560454    0.0800
     32 H32        -8.9906    0.6735   61.0037 H       1  ZINC001067560454    0.0800
     33 H33        -8.2107    1.3992   63.2243 H       1  ZINC001067560454    0.4000
     34 H34        -9.5214    4.1551   65.9346 H       1  ZINC001067560454    0.0600
     35 H35        -7.8112    4.3695   66.3793 H       1  ZINC001067560454    0.0700
     36 H36        -8.2850    4.3168   64.6644 H       1  ZINC001067560454    0.0600
     37 H37        -7.6392    2.5098   67.7599 H       1  ZINC001067560454    0.0900
     38 H38        -8.9295    1.2698   67.4458 H       1  ZINC001067560454    0.0700
     39 H39        -6.1266    0.7395   66.9952 H       1  ZINC001067560454    0.0700
     40 H40        -7.4385   -0.0523   66.0190 H       1  ZINC001067560454    0.0800
     41 H41        -6.7645    1.5602   64.3008 H       1  ZINC001067560454    0.0800
     42 H42        -6.1138    2.7145   65.5439 H       1  ZINC001067560454    0.0900
     43 H43       -11.6768    1.9689   63.2670 H       1  ZINC001067560454    0.0800
     44 H44       -10.7287    2.3356   61.8050 H       1  ZINC001067560454    0.0800
     45 H45       -12.6996    0.0264   62.1252 H       1  ZINC001067560454    0.0700
     46 H46       -12.9874    1.5209   61.2027 H       1  ZINC001067560454    0.0800
     47 H47       -14.9324   -3.4740   61.7676 H       1  ZINC001067560454    0.2300
     48 H48       -17.0667   -3.1035   59.2972 H       1  ZINC001067560454    0.0800
     49 H49       -15.9450   -3.7960   58.1011 H       1  ZINC001067560454    0.0900
     50 H50       -16.1475   -4.5769   59.6877 H       1  ZINC001067560454    0.0900
     51 H51       -13.4844   -0.1087   56.3855 H       1  ZINC001067560454    0.2100
@<TRIPOS>BOND
     1     1     2    1
     2     1    28    1
     3     1    29    1
     4     1    30    1
     5     2     3    1
     6     2    17    1
     7     2     4    1
     8     4     5    1
     9     4    31    1
    10     4    32    1
    11     5     6    1
    12     5     7    1
    13     5    15    1
    14     7     8   am
    15     7    33    1
    16     8     9    2
    17     8    10    1
    18    10    14    1
    19    10    11    1
    20    10    12    1
    21    11    34    1
    22    11    35    1
    23    11    36    1
    24    12    13    1
    25    12    37    1
    26    12    38    1
    27    13    14    1
    28    13    39    1
    29    13    40    1
    30    14    41    1
    31    14    42    1
    32    15    16    1
    33    15    43    1
    34    15    44    1
    35    16    17    1
    36    16    45    1
    37    16    46    1
    38    17    18    1
    39    18    27   ar
    40    18    19   ar
    41    19    24   ar
    42    19    20    1
    43    20    21    2
    44    21    22    1
    45    21    47    1
    46    22    23    1
    47    22    24    1
    48    23    48    1
    49    23    49    1
    50    23    50    1
    51    24    25   ar
    52    25    26   ar
    53    26    27   ar
    54    26    51    1
@<TRIPOS>SUBSTRUCTURE
     1 ZINC001067560454        1 TEMP              0 ****  ****    0 ROOT


##########                                Name:    ZINC000002634904
##########                DOCK_Rotatable_Bonds:                   7
##########                         Heavy_Atoms:                  31
##########                    Molecular_Weight:             423.498
##########                DOCK_Rotatable_Bonds:                   7
##########                       Formal_Charge:        -7.45058e-08
##########                     HBond_Acceptors:                   7
##########                        HBond_Donors:                   1
##########                         Heavy_Atoms:                  31
##########                          Grid_Score:          -27.484966
##########                     Grid_vdw_energy:          -26.785372
##########                      Grid_es_energy:           -0.699594
##########           Internal_energy_repulsive:            8.106952

@<TRIPOS>MOLECULE
ZINC000002634904
 48 51 1 0 0
SMALL
USER_CHARGES


@<TRIPOS>ATOM
      1 N1         -4.8048    1.3406   51.4741 N.1     1  ZINC000002634904   -0.4100
      2 C2         -5.8716    1.1181   51.7946 C.1     1  ZINC000002634904    0.2500
      3 C3         -7.2166    0.8376   52.1986 C.ar    1  ZINC000002634904   -0.0400
      4 C4         -8.0007   -0.0494   51.4556 C.ar    1  ZINC000002634904   -0.0500
      5 C5         -9.2935   -0.3167   51.8470 C.ar    1  ZINC000002634904   -0.1400
      6 C6         -9.8194    0.2949   52.9804 C.ar    1  ZINC000002634904    0.1700
      7 N7        -11.1299    0.0216   53.3741 N.am    1  ZINC000002634904   -0.6700
      8 C8        -11.5427   -1.2550   53.5022 C.2     1  ZINC000002634904    0.5400
      9 O9        -10.7752   -2.1662   53.2753 O.2     1  ZINC000002634904   -0.5000
     10 C10       -12.9581   -1.5501   53.9274 C.3     1  ZINC000002634904   -0.1700
     11 S11       -13.8157    0.0023   54.2887 S.3     1  ZINC000002634904    0.1300
     12 C12       -13.8342   -0.0609   56.0494 C.ar    1  ZINC000002634904    0.2100
     13 N13       -14.9892    0.0533   56.6955 N.ar    1  ZINC000002634904   -0.2900
     14 N14       -15.0505    0.0129   57.9803 N.ar    1  ZINC000002634904   -0.1600
     15 C15       -13.9465   -0.1460   58.7026 C.ar    1  ZINC000002634904    0.0600
     16 C16       -14.0153   -0.1932   60.1819 C.ar    1  ZINC000002634904   -0.0500
     17 C17       -14.5553   -1.3080   60.8223 C.ar    1  ZINC000002634904   -0.0800
     18 C18       -14.6167   -1.3461   62.2004 C.ar    1  ZINC000002634904   -0.1200
     19 C19       -14.1442   -0.2811   62.9462 C.ar    1  ZINC000002634904   -0.1000
     20 C20       -13.6075    0.8275   62.3165 C.ar    1  ZINC000002634904   -0.1200
     21 C21       -13.5351    0.8746   60.9393 C.ar    1  ZINC000002634904   -0.0800
     22 C22       -12.7092   -0.2694   58.0391 C.ar    1  ZINC000002634904    0.2300
     23 C23       -11.4536   -0.4479   58.8050 C.ar    1  ZINC000002634904   -0.0700
     24 C24       -10.5356    0.5977   58.8982 C.ar    1  ZINC000002634904   -0.0700
     25 C25        -9.3682    0.4255   59.6133 C.ar    1  ZINC000002634904   -0.1200
     26 C26        -9.1075   -0.7814   60.2371 C.ar    1  ZINC000002634904   -0.0900
     27 C27       -10.0140   -1.8226   60.1480 C.ar    1  ZINC000002634904   -0.1200
     28 C28       -11.1877   -1.6605   59.4405 C.ar    1  ZINC000002634904   -0.0700
     29 N29       -12.6947   -0.2272   56.7089 N.ar    1  ZINC000002634904   -0.4400
     30 C30        -9.0418    1.1779   53.7225 C.ar    1  ZINC000002634904   -0.1200
     31 C31        -7.7464    1.4458   53.3402 C.ar    1  ZINC000002634904   -0.0500
     32 H32        -7.5932   -0.5242   50.5753 H       1  ZINC000002634904    0.1400
     33 H33        -9.9001   -1.0016   51.2732 H       1  ZINC000002634904    0.1400
     34 H34       -11.7437    0.7503   53.5557 H       1  ZINC000002634904    0.4200
     35 H35       -13.4770   -2.0736   53.1243 H       1  ZINC000002634904    0.1300
     36 H36       -12.9464   -2.1751   54.8203 H       1  ZINC000002634904    0.1300
     37 H37       -14.9250   -2.1397   60.2410 H       1  ZINC000002634904    0.1300
     38 H38       -15.0346   -2.2089   62.6975 H       1  ZINC000002634904    0.1300
     39 H39       -14.1950   -0.3152   64.0245 H       1  ZINC000002634904    0.1300
     40 H40       -13.2403    1.6560   62.9041 H       1  ZINC000002634904    0.1300
     41 H41       -13.1155    1.7405   60.4488 H       1  ZINC000002634904    0.1200
     42 H42       -10.7379    1.5402   58.4112 H       1  ZINC000002634904    0.1300
     43 H43        -8.6564    1.2345   59.6858 H       1  ZINC000002634904    0.1300
     44 H44        -8.1924   -0.9114   60.7958 H       1  ZINC000002634904    0.1300
     45 H45        -9.8049   -2.7626   60.6368 H       1  ZINC000002634904    0.1300
     46 H46       -11.8946   -2.4740   59.3716 H       1  ZINC000002634904    0.1300
     47 H47        -9.4533    1.6505   54.6021 H       1  ZINC000002634904    0.1500
     48 H48        -7.1431    2.1311   53.9170 H       1  ZINC000002634904    0.1400
@<TRIPOS>BOND
     1     1     2    3
     2     2     3    1
     3     3    31   ar
     4     3     4   ar
     5     4     5   ar
     6     4    32    1
     7     5     6   ar
     8     5    33    1
     9     6     7    1
    10     6    30   ar
    11     7     8   am
    12     7    34    1
    13     8     9    2
    14     8    10    1
    15    10    11    1
    16    10    35    1
    17    10    36    1
    18    11    12    1
    19    12    29   ar
    20    12    13   ar
    21    13    14   ar
    22    14    15   ar
    23    15    16    1
    24    15    22   ar
    25    16    21   ar
    26    16    17   ar
    27    17    18   ar
    28    17    37    1
    29    18    19   ar
    30    18    38    1
    31    19    20   ar
    32    19    39    1
    33    20    21   ar
    34    20    40    1
    35    21    41    1
    36    22    23    1
    37    22    29   ar
    38    23    28   ar
    39    23    24   ar
    40    24    25   ar
    41    24    42    1
    42    25    26   ar
    43    25    43    1
    44    26    27   ar
    45    26    44    1
    46    27    28   ar
    47    27    45    1
    48    28    46    1
    49    30    31   ar
    50    30    47    1
    51    31    48    1
@<TRIPOS>SUBSTRUCTURE
     1 ZINC000002634904        1 TEMP              0 ****  ****    0 ROOT


##########                                Name:    ZINC000623581528
##########                DOCK_Rotatable_Bonds:                   5
##########                         Heavy_Atoms:                  26
##########                    Molecular_Weight:             355.369
##########                DOCK_Rotatable_Bonds:                   5
##########                       Formal_Charge:        -4.47035e-07
##########                     HBond_Acceptors:                   7
##########                        HBond_Donors:                   2
##########                         Heavy_Atoms:                  26
##########                          Grid_Score:          -27.480385
##########                     Grid_vdw_energy:          -26.964350
##########                      Grid_es_energy:           -0.516036
##########           Internal_energy_repulsive:            3.585907

@<TRIPOS>MOLECULE
ZINC000623581528
 44 47 1 0 0
SMALL
USER_CHARGES


@<TRIPOS>ATOM
      1 C1        -10.8899    0.1455   58.0534 C.3     1  ZINC000623581528    0.1000
      2 N2        -11.0687   -1.0425   57.2150 N.am    1  ZINC000623581528   -0.5500
      3 C3        -11.4088   -2.2750   57.6413 C.2     1  ZINC000623581528    0.6300
      4 O4        -11.6196   -2.5845   58.7981 O.2     1  ZINC000623581528   -0.4800
      5 O5        -11.4789   -3.1079   56.5910 O.3     1  ZINC000623581528   -0.2300
      6 C6        -11.1831   -2.4232   55.4591 C.ar    1  ZINC000623581528    0.0400
      7 C7        -11.1098   -2.7896   54.1247 C.ar    1  ZINC000623581528   -0.0800
      8 C8        -10.7751   -1.8494   53.1693 C.ar    1  ZINC000623581528   -0.0900
      9 C9        -10.5119   -0.5421   53.5382 C.ar    1  ZINC000623581528   -0.0900
     10 C10       -10.1476    0.4761   52.4885 C.3     1  ZINC000623581528    0.1800
     11 N11        -8.6893    0.5737   52.3882 N.am    1  ZINC000623581528   -0.7400
     12 C12        -8.1142    1.7441   52.0478 C.2     1  ZINC000623581528    0.7100
     13 O13        -8.8056    2.7185   51.8225 O.2     1  ZINC000623581528   -0.5800
     14 N14        -6.7725    1.8343   51.9571 N.am    1  ZINC000623581528   -0.7300
     15 C15        -6.1471    3.1070   51.5888 C.3     1  ZINC000623581528    0.2000
     16 H16        -6.8007    3.9388   51.8515 H       1  ZINC000623581528    0.1000
     17 C17        -5.8308    3.1309   50.0783 C.3     1  ZINC000623581528   -0.1300
     18 C18        -4.3785    2.6100   50.0356 C.3     1  ZINC000623581528   -0.0800
     19 C19        -3.7900    2.9663   51.3840 C.ar    1  ZINC000623581528   -0.1000
     20 C20        -2.4699    3.0350   51.7965 C.ar    1  ZINC000623581528   -0.0800
     21 C21        -2.1646    3.3881   53.0962 C.ar    1  ZINC000623581528   -0.1400
     22 C22        -3.1816    3.6744   53.9908 C.ar    1  ZINC000623581528    0.0900
     23 F23        -2.8864    4.0207   55.2628 F       1  ZINC000623581528   -0.1400
     24 C24        -4.5010    3.6056   53.5796 C.ar    1  ZINC000623581528   -0.1200
     25 C25        -4.8078    3.2531   52.2787 C.ar    1  ZINC000623581528   -0.0900
     26 C26       -10.5824   -0.1673   54.8663 C.ar    1  ZINC000623581528   -0.0800
     27 C27       -10.9238   -1.1033   55.8293 C.ar    1  ZINC000623581528    0.0700
     28 H28       -11.8406    0.6704   58.1473 H       1  ZINC000623581528    0.0800
     29 H29       -10.5423   -0.1561   59.0416 H       1  ZINC000623581528    0.0900
     30 H30       -10.1538    0.8061   57.5953 H       1  ZINC000623581528    0.0900
     31 H31       -11.3137   -3.8089   53.8320 H       1  ZINC000623581528    0.1500
     32 H32       -10.7183   -2.1363   52.1296 H       1  ZINC000623581528    0.1500
     33 H33       -10.5583    0.1692   51.5266 H       1  ZINC000623581528    0.0800
     34 H34       -10.5585    1.4469   52.7660 H       1  ZINC000623581528    0.0800
     35 H35        -8.1378   -0.2040   52.5668 H       1  ZINC000623581528    0.4000
     36 H36        -6.2209    1.0567   52.1356 H       1  ZINC000623581528    0.4000
     37 H37        -6.4978    2.4639   49.5321 H       1  ZINC000623581528    0.0900
     38 H38        -5.8899    4.1461   49.6861 H       1  ZINC000623581528    0.0900
     39 H39        -4.3683    1.5295   49.8921 H       1  ZINC000623581528    0.0800
     40 H40        -3.8230    3.1035   49.2381 H       1  ZINC000623581528    0.0800
     41 H41        -1.6760    2.8118   51.0991 H       1  ZINC000623581528    0.1300
     42 H42        -1.1339    3.4407   53.4144 H       1  ZINC000623581528    0.1400
     43 H43        -5.2947    3.8287   54.2772 H       1  ZINC000623581528    0.1400
     44 H44       -10.3766    0.8536   55.1524 H       1  ZINC000623581528    0.1400
@<TRIPOS>BOND
     1     1     2    1
     2     1    28    1
     3     1    29    1
     4     1    30    1
     5     2    27    1
     6     2     3   am
     7     3     4    2
     8     3     5    1
     9     5     6    1
    10     6    27   ar
    11     6     7   ar
    12     7     8   ar
    13     7    31    1
    14     8     9   ar
    15     8    32    1
    16     9    10    1
    17     9    26   ar
    18    10    11    1
    19    10    33    1
    20    10    34    1
    21    11    12   am
    22    11    35    1
    23    12    13    2
    24    12    14   am
    25    14    15    1
    26    14    36    1
    27    15    16    1
    28    15    25    1
    29    15    17    1
    30    17    18    1
    31    17    37    1
    32    17    38    1
    33    18    19    1
    34    18    39    1
    35    18    40    1
    36    19    25   ar
    37    19    20   ar
    38    20    21   ar
    39    20    41    1
    40    21    22   ar
    41    21    42    1
    42    22    23    1
    43    22    24   ar
    44    24    25   ar
    45    24    43    1
    46    26    27   ar
    47    26    44    1
@<TRIPOS>SUBSTRUCTURE
     1 ZINC000623581528        1 TEMP              0 ****  ****    0 ROOT


##########                                Name:    ZINC000430767928
##########                DOCK_Rotatable_Bonds:                   4
##########                         Heavy_Atoms:                  25
##########                    Molecular_Weight:             358.505
##########                DOCK_Rotatable_Bonds:                   4
##########                       Formal_Charge:          -0.0100002
##########                     HBond_Acceptors:                   5
##########                        HBond_Donors:                   0
##########                         Heavy_Atoms:                  25
##########                          Grid_Score:          -27.391449
##########                     Grid_vdw_energy:          -27.274298
##########                      Grid_es_energy:           -0.117151
##########           Internal_energy_repulsive:           12.756047

@<TRIPOS>MOLECULE
ZINC000430767928
 51 55 1 0 0
SMALL
USER_CHARGES


@<TRIPOS>ATOM
      1 O1        -12.3409   -3.8194   53.9265 O.2     1  ZINC000430767928   -0.4600
      2 C2        -12.4997   -2.6922   54.3436 C.2     1  ZINC000430767928    0.5300
      3 C3        -12.4410   -1.4065   53.5544 C.3     1  ZINC000430767928    0.0400
      4 H4        -13.2965   -1.2781   52.8913 H       1  ZINC000430767928    0.1400
      5 C5        -11.0903   -1.2501   52.8258 C.3     1  ZINC000430767928   -0.1100
      6 C6        -10.8923    0.2873   52.8202 C.3     1  ZINC000430767928   -0.1000
      7 H7        -11.2263    0.7092   51.8722 H       1  ZINC000430767928    0.1000
      8 C8         -9.4233    0.6355   53.0684 C.3     1  ZINC000430767928   -0.0800
      9 C9         -8.5565   -0.0061   51.9830 C.3     1  ZINC000430767928   -0.1100
     10 C10        -7.0875    0.3422   52.2313 C.3     1  ZINC000430767928   -0.1200
     11 C11        -6.9102    1.8614   52.1937 C.3     1  ZINC000430767928   -0.1200
     12 C12        -7.7769    2.5030   53.2791 C.3     1  ZINC000430767928   -0.1200
     13 C13        -9.2459    2.1548   53.0308 C.3     1  ZINC000430767928   -0.1200
     14 C14       -11.7726    0.8048   53.9784 C.3     1  ZINC000430767928    0.1600
     15 N15       -12.3698   -0.3747   54.6268 N.am    1  ZINC000430767928   -0.6400
     16 C16       -12.8268   -0.9736   55.7311 C.2     1  ZINC000430767928    0.7400
     17 O17       -13.2206   -0.3815   56.7168 O.2     1  ZINC000430767928   -0.5100
     18 N18       -12.7730   -2.3184   55.6134 N.am    1  ZINC000430767928   -0.5800
     19 C19       -12.9769   -3.2539   56.7222 C.3     1  ZINC000430767928    0.2600
     20 H20       -12.8733   -4.2763   56.3587 H       1  ZINC000430767928    0.1200
     21 C21       -11.9492   -2.9949   57.7934 C.2     1  ZINC000430767928   -0.2100
     22 C22       -10.6321   -3.1478   57.6485 C.2     1  ZINC000430767928   -0.1200
     23 C23        -9.8828   -2.8486   58.7733 C.2     1  ZINC000430767928   -0.1400
     24 C24       -10.5917   -2.4529   59.8318 C.2     1  ZINC000430767928   -0.2300
     25 S25       -12.3024   -2.4377   59.4239 S.3     1  ZINC000430767928    0.1700
     26 C26       -14.3790   -3.0587   57.3027 C.3     1  ZINC000430767928   -0.1700
     27 C27       -15.5624   -3.5698   56.4782 C.3     1  ZINC000430767928   -0.1700
     28 C28       -15.1392   -4.3093   57.7491 C.3     1  ZINC000430767928   -0.1600
     29 H29       -10.2914   -1.7418   53.3807 H       1  ZINC000430767928    0.0800
     30 H30       -11.1518   -1.6367   51.8084 H       1  ZINC000430767928    0.1000
     31 H31        -9.1205    0.2585   54.0453 H       1  ZINC000430767928    0.0700
     32 H32        -8.6829   -1.0884   52.0098 H       1  ZINC000430767928    0.0600
     33 H33        -8.8593    0.3710   51.0062 H       1  ZINC000430767928    0.0700
     34 H34        -6.7848   -0.0349   53.2082 H       1  ZINC000430767928    0.0600
     35 H35        -6.4701   -0.1149   51.4581 H       1  ZINC000430767928    0.0600
     36 H36        -5.8637    2.1095   52.3706 H       1  ZINC000430767928    0.0600
     37 H37        -7.2129    2.2385   51.2169 H       1  ZINC000430767928    0.0600
     38 H38        -7.4743    2.1260   54.2560 H       1  ZINC000430767928    0.0600
     39 H39        -7.6506    3.5854   53.2523 H       1  ZINC000430767928    0.0600
     40 H40        -9.5487    2.5318   52.0539 H       1  ZINC000430767928    0.0700
     41 H41        -9.8634    2.6119   53.8041 H       1  ZINC000430767928    0.0600
     42 H42       -11.1630    1.3608   54.6908 H       1  ZINC000430767928    0.0900
     43 H43       -12.5659    1.4422   53.5881 H       1  ZINC000430767928    0.0800
     44 H44       -10.1841   -3.4800   56.7236 H       1  ZINC000430767928    0.1400
     45 H45        -8.8061   -2.9299   58.7926 H       1  ZINC000430767928    0.1400
     46 H46       -10.1779   -2.1801   60.7914 H       1  ZINC000430767928    0.1600
     47 H47       -14.5253   -2.1472   57.8822 H       1  ZINC000430767928    0.1200
     48 H48       -16.4873   -2.9944   56.5152 H       1  ZINC000430767928    0.1000
     49 H49       -15.3419   -4.0450   55.5224 H       1  ZINC000430767928    0.1000
     50 H50       -14.6403   -5.2710   57.6292 H       1  ZINC000430767928    0.1000
     51 H51       -15.7858   -4.2204   58.6221 H       1  ZINC000430767928    0.1000
@<TRIPOS>BOND
     1     1     2    2
     2     2    18   am
     3     2     3    1
     4     3     4    1
     5     3    15    1
     6     3     5    1
     7     5     6    1
     8     5    29    1
     9     5    30    1
    10     6     7    1
    11     6     8    1
    12     6    14    1
    13     8    13    1
    14     8     9    1
    15     8    31    1
    16     9    10    1
    17     9    32    1
    18     9    33    1
    19    10    11    1
    20    10    34    1
    21    10    35    1
    22    11    12    1
    23    11    36    1
    24    11    37    1
    25    12    13    1
    26    12    38    1
    27    12    39    1
    28    13    40    1
    29    13    41    1
    30    14    15    1
    31    14    42    1
    32    14    43    1
    33    15    16   am
    34    16    17    2
    35    16    18   am
    36    18    19    1
    37    19    20    1
    38    19    21    1
    39    19    26    1
    40    21    25    1
    41    21    22    2
    42    22    23    1
    43    22    44    1
    44    23    24    2
    45    23    45    1
    46    24    25    1
    47    24    46    1
    48    26    28    1
    49    26    27    1
    50    26    47    1
    51    27    28    1
    52    27    48    1
    53    27    49    1
    54    28    50    1
    55    28    51    1
@<TRIPOS>SUBSTRUCTURE
     1 ZINC000430767928        1 TEMP              0 ****  ****    0 ROOT


##########                                Name:    ZINC001015666108
##########                DOCK_Rotatable_Bonds:                   7
##########                         Heavy_Atoms:                  25
##########                    Molecular_Weight:             346.429
##########                DOCK_Rotatable_Bonds:                   7
##########                       Formal_Charge:          -0.0199997
##########                     HBond_Acceptors:                   7
##########                        HBond_Donors:                   1
##########                         Heavy_Atoms:                  25
##########                          Grid_Score:          -27.369366
##########                     Grid_vdw_energy:          -27.107336
##########                      Grid_es_energy:           -0.262030
##########           Internal_energy_repulsive:            9.270723

@<TRIPOS>MOLECULE
ZINC001015666108
 51 53 1 0 0
SMALL
USER_CHARGES


@<TRIPOS>ATOM
      1 C1        -11.6209   -2.2469   59.3647 C.3     1  ZINC001015666108   -0.1400
      2 C2        -10.3133   -1.6044   58.8973 C.3     1  ZINC001015666108   -0.0700
      3 C3        -10.0132   -0.3988   59.7501 C.2     1  ZINC001015666108   -0.0700
      4 C4        -10.2103    0.9091   59.4108 C.2     1  ZINC001015666108   -0.0900
      5 C5        -10.7560    1.3968   58.1399 C.2     1  ZINC001015666108    0.6100
      6 O6        -11.8623    1.9029   58.1070 O.2     1  ZINC001015666108   -0.5100
      7 N7        -10.0324    1.2847   57.0084 N.am    1  ZINC001015666108   -0.7200
      8 C8        -10.5783    1.7703   55.7386 C.3     1  ZINC001015666108    0.1400
      9 H9        -11.6624    1.8631   55.8043 H       1  ZINC001015666108    0.1100
     10 C10        -9.9447    3.1308   55.3676 C.3     1  ZINC001015666108   -0.1300
     11 C11        -8.8112    2.7301   54.3903 C.3     1  ZINC001015666108    0.0300
     12 N12        -9.4088    1.6118   53.6167 N.3     1  ZINC001015666108   -0.5100
     13 C13        -8.3660    0.7915   52.9863 C.3     1  ZINC001015666108    0.1700
     14 H14        -7.7078    0.3867   53.7551 H       1  ZINC001015666108    0.0900
     15 C15        -9.0179   -0.3586   52.2161 C.3     1  ZINC001015666108   -0.1500
     16 C16        -7.5641    1.6420   52.0353 C.2     1  ZINC001015666108    0.1900
     17 N17        -6.2644    1.6095   51.8646 N.2     1  ZINC001015666108   -0.4800
     18 C18        -5.9993    2.5345   50.9249 C.2     1  ZINC001015666108    0.1800
     19 C19        -4.6404    2.8827   50.3745 C.3     1  ZINC001015666108    0.0000
     20 C20        -4.3081    4.3361   50.7180 C.3     1  ZINC001015666108   -0.1500
     21 C21        -3.5881    1.9594   50.9918 C.3     1  ZINC001015666108   -0.1500
     22 N22        -7.1303    3.0724   50.5785 N.2     1  ZINC001015666108   -0.3800
     23 O23        -8.0424    2.5697   51.2006 O.3     1  ZINC001015666108    0.1000
     24 C24       -10.1919    0.8180   54.5918 C.3     1  ZINC001015666108    0.0300
     25 O25        -9.8151    1.6740   60.4494 O.3     1  ZINC001015666108   -0.1700
     26 C26        -9.3726    0.8867   61.4383 C.2     1  ZINC001015666108    0.0000
     27 C27        -9.4825   -0.4028   61.0495 C.2     1  ZINC001015666108   -0.2200
     28 H28       -11.8381   -3.1190   58.7478 H       1  ZINC001015666108    0.0600
     29 H29       -11.5231   -2.5537   60.4060 H       1  ZINC001015666108    0.0600
     30 H30       -12.4331   -1.5258   59.2732 H       1  ZINC001015666108    0.0500
     31 H31        -9.5011   -2.3255   58.9888 H       1  ZINC001015666108    0.0900
     32 H32       -10.4112   -1.2976   57.8559 H       1  ZINC001015666108    0.0700
     33 H33        -9.1501    0.8824   57.0348 H       1  ZINC001015666108    0.4000
     34 H34       -10.6728    3.7727   54.8714 H       1  ZINC001015666108    0.0900
     35 H35        -9.5367    3.6202   56.2519 H       1  ZINC001015666108    0.0800
     36 H36        -8.5589    3.5615   53.7322 H       1  ZINC001015666108    0.0800
     37 H37        -7.9321    2.3919   54.9388 H       1  ZINC001015666108    0.0500
     38 H38        -9.6762    0.0460   51.4473 H       1  ZINC001015666108    0.0800
     39 H39        -8.2442   -0.9674   51.7484 H       1  ZINC001015666108    0.0700
     40 H40        -9.5980   -0.9739   52.9040 H       1  ZINC001015666108    0.0800
     41 H41        -4.6438    2.7570   49.2918 H       1  ZINC001015666108    0.1000
     42 H42        -4.3048    4.4619   51.8008 H       1  ZINC001015666108    0.0600
     43 H43        -3.3252    4.5881   50.3200 H       1  ZINC001015666108    0.0700
     44 H44        -5.0577    4.9940   50.2783 H       1  ZINC001015666108    0.0600
     45 H45        -3.5847    2.0851   52.0746 H       1  ZINC001015666108    0.0600
     46 H46        -3.8248    0.9239   50.7470 H       1  ZINC001015666108    0.0600
     47 H47        -2.6052    2.2113   50.5937 H       1  ZINC001015666108    0.0700
     48 H48        -9.5842   -0.0004   54.9776 H       1  ZINC001015666108    0.0600
     49 H49       -11.0895    0.4246   54.1146 H       1  ZINC001015666108    0.1000
     50 H50        -8.9942    1.2263   62.3912 H       1  ZINC001015666108    0.2100
     51 H51        -9.2074   -1.2728   61.6275 H       1  ZINC001015666108    0.1600
@<TRIPOS>BOND
     1     1     2    1
     2     1    28    1
     3     1    29    1
     4     1    30    1
     5     2     3    1
     6     2    31    1
     7     2    32    1
     8     3    27    1
     9     3     4    2
    10     4     5    1
    11     4    25    1
    12     5     6    2
    13     5     7   am
    14     7     8    1
    15     7    33    1
    16     8     9    1
    17     8    24    1
    18     8    10    1
    19    10    11    1
    20    10    34    1
    21    10    35    1
    22    11    12    1
    23    11    36    1
    24    11    37    1
    25    12    13    1
    26    12    24    1
    27    13    14    1
    28    13    15    1
    29    13    16    1
    30    15    38    1
    31    15    39    1
    32    15    40    1
    33    16    23    1
    34    16    17    2
    35    17    18    1
    36    18    19    1
    37    18    22    2
    38    19    20    1
    39    19    21    1
    40    19    41    1
    41    20    42    1
    42    20    43    1
    43    20    44    1
    44    21    45    1
    45    21    46    1
    46    21    47    1
    47    22    23    1
    48    24    48    1
    49    24    49    1
    50    25    26    1
    51    26    27    2
    52    26    50    1
    53    27    51    1
@<TRIPOS>SUBSTRUCTURE
     1 ZINC001015666108        1 TEMP              0 ****  ****    0 ROOT


##########                                Name:    ZINC001098311495
##########                DOCK_Rotatable_Bonds:                   8
##########                         Heavy_Atoms:                  24
##########                    Molecular_Weight:             328.454
##########                DOCK_Rotatable_Bonds:                   8
##########                       Formal_Charge:          0.00999987
##########                     HBond_Acceptors:                   4
##########                        HBond_Donors:                   1
##########                         Heavy_Atoms:                  24
##########                          Grid_Score:          -27.362825
##########                     Grid_vdw_energy:          -27.200397
##########                      Grid_es_energy:           -0.162429
##########           Internal_energy_repulsive:           22.216881

@<TRIPOS>MOLECULE
ZINC001098311495
 52 54 1 0 0
SMALL
USER_CHARGES


@<TRIPOS>ATOM
      1 C1         -9.6340    0.4300   59.3687 C.3     1  ZINC001098311495   -0.1500
      2 C2         -9.4306   -0.9819   59.9220 C.3     1  ZINC001098311495    0.0500
      3 O3        -10.3177   -1.1949   61.0218 O.3     1  ZINC001098311495   -0.2800
      4 C4        -10.1601   -0.3929   62.1044 C.ar    1  ZINC001098311495    0.1900
      5 C5         -8.9494   -0.3647   62.7800 C.ar    1  ZINC001098311495   -0.2200
      6 C6         -8.7925    0.4475   63.8859 C.ar    1  ZINC001098311495   -0.0500
      7 C7         -9.8377    1.2436   64.3245 C.ar    1  ZINC001098311495   -0.1700
      8 C8        -11.0459    1.2326   63.6614 C.ar    1  ZINC001098311495   -0.0500
      9 C9        -11.2184    0.4157   62.5418 C.ar    1  ZINC001098311495   -0.1800
     10 C10       -12.5091    0.3991   61.8271 C.2     1  ZINC001098311495    0.5600
     11 O11       -12.8916    1.3927   61.2398 O.2     1  ZINC001098311495   -0.5200
     12 N12       -13.2641   -0.7173   61.8254 N.am    1  ZINC001098311495   -0.7200
     13 C13       -14.5448   -0.7344   61.1143 C.3     1  ZINC001098311495    0.1600
     14 H14       -15.0716    0.2098   61.2524 H       1  ZINC001098311495    0.1000
     15 C15       -15.4161   -1.9230   61.5892 C.3     1  ZINC001098311495   -0.1200
     16 C16       -15.6084   -2.7728   60.2969 C.3     1  ZINC001098311495    0.0500
     17 H17       -15.8774   -3.8170   60.4561 H       1  ZINC001098311495    0.1100
     18 C18       -16.5836   -1.9564   59.3962 C.3     1  ZINC001098311495   -0.1500
     19 C19       -15.7183   -0.7679   58.9103 C.3     1  ZINC001098311495   -0.1500
     20 C20       -14.3271   -1.0247   59.5987 C.3     1  ZINC001098311495    0.0400
     21 H21       -13.4744   -0.5310   59.1326 H       1  ZINC001098311495    0.1200
     22 N22       -14.2975   -2.5310   59.5953 N.3     1  ZINC001098311495   -0.4900
     23 C23       -14.3301   -3.0550   58.2233 C.3     1  ZINC001098311495    0.0600
     24 C24       -13.0104   -2.7808   57.5493 C.2     1  ZINC001098311495   -0.1600
     25 C25       -12.7720   -3.2640   56.3552 C.2     1  ZINC001098311495   -0.1200
     26 C26       -13.8173   -4.0940   55.6556 C.3     1  ZINC001098311495   -0.1200
     27 C27       -11.4523   -2.9898   55.6812 C.3     1  ZINC001098311495   -0.1200
     28 H28       -10.6644    0.5431   59.0316 H       1  ZINC001098311495    0.0700
     29 H29        -9.4253    1.1602   60.1506 H       1  ZINC001098311495    0.0700
     30 H30        -8.9574    0.5925   58.5297 H       1  ZINC001098311495    0.0800
     31 H31        -8.4002   -1.0950   60.2591 H       1  ZINC001098311495    0.0600
     32 H32        -9.6394   -1.7121   59.1401 H       1  ZINC001098311495    0.0600
     33 H33        -8.1297   -0.9822   62.4438 H       1  ZINC001098311495    0.1300
     34 H34        -7.8493    0.4624   64.4116 H       1  ZINC001098311495    0.1300
     35 H35        -9.7052    1.8759   65.1900 H       1  ZINC001098311495    0.1300
     36 H36       -11.8582    1.8547   64.0071 H       1  ZINC001098311495    0.1300
     37 H37       -12.9594   -1.5096   62.2949 H       1  ZINC001098311495    0.4000
     38 H38       -16.3772   -1.5693   61.9624 H       1  ZINC001098311495    0.0800
     39 H39       -14.8951   -2.4995   62.3535 H       1  ZINC001098311495    0.0800
     40 H40       -16.9195   -2.5574   58.5511 H       1  ZINC001098311495    0.0700
     41 H41       -17.4344   -1.5996   59.9767 H       1  ZINC001098311495    0.0800
     42 H42       -15.6252   -0.7799   57.8243 H       1  ZINC001098311495    0.0700
     43 H43       -16.1401    0.1780   59.2499 H       1  ZINC001098311495    0.0800
     44 H44       -15.1305   -2.5672   57.6670 H       1  ZINC001098311495    0.0500
     45 H45       -14.5085   -4.1300   58.2491 H       1  ZINC001098311495    0.0800
     46 H46       -12.2613   -2.1860   58.0506 H       1  ZINC001098311495    0.1100
     47 H47       -13.6768   -5.1446   55.9095 H       1  ZINC001098311495    0.0700
     48 H48       -13.7222   -3.9648   54.5775 H       1  ZINC001098311495    0.0600
     49 H49       -14.8091   -3.7728   55.9739 H       1  ZINC001098311495    0.0600
     50 H50       -11.4987   -2.0287   55.1690 H       1  ZINC001098311495    0.0700
     51 H51       -10.6603   -2.9648   56.4296 H       1  ZINC001098311495    0.0600
     52 H52       -11.2435   -3.7775   54.9572 H       1  ZINC001098311495    0.0600
@<TRIPOS>BOND
     1     1     2    1
     2     1    28    1
     3     1    29    1
     4     1    30    1
     5     2     3    1
     6     2    31    1
     7     2    32    1
     8     3     4    1
     9     4     9   ar
    10     4     5   ar
    11     5     6   ar
    12     5    33    1
    13     6     7   ar
    14     6    34    1
    15     7     8   ar
    16     7    35    1
    17     8     9   ar
    18     8    36    1
    19     9    10    1
    20    10    11    2
    21    10    12   am
    22    12    13    1
    23    12    37    1
    24    13    14    1
    25    13    20    1
    26    13    15    1
    27    15    16    1
    28    15    38    1
    29    15    39    1
    30    16    17    1
    31    16    22    1
    32    16    18    1
    33    18    19    1
    34    18    40    1
    35    18    41    1
    36    19    20    1
    37    19    42    1
    38    19    43    1
    39    20    21    1
    40    20    22    1
    41    22    23    1
    42    23    24    1
    43    23    44    1
    44    23    45    1
    45    24    25    2
    46    24    46    1
    47    25    26    1
    48    25    27    1
    49    26    47    1
    50    26    48    1
    51    26    49    1
    52    27    50    1
    53    27    51    1
    54    27    52    1
@<TRIPOS>SUBSTRUCTURE
     1 ZINC001098311495        1 TEMP              0 ****  ****    0 ROOT


##########                                Name:    ZINC001087843226
##########                DOCK_Rotatable_Bonds:                   6
##########                         Heavy_Atoms:                  27
##########                    Molecular_Weight:             368.479
##########                DOCK_Rotatable_Bonds:                   6
##########                       Formal_Charge:        -4.47035e-07
##########                     HBond_Acceptors:                   6
##########                        HBond_Donors:                   1
##########                         Heavy_Atoms:                  27
##########                          Grid_Score:          -27.345785
##########                     Grid_vdw_energy:          -26.742378
##########                      Grid_es_energy:           -0.603406
##########           Internal_energy_repulsive:           32.188835

@<TRIPOS>MOLECULE
ZINC001087843226
 55 58 1 0 0
SMALL
USER_CHARGES


@<TRIPOS>ATOM
      1 C1         -9.5767    4.7584   52.3885 C.3     1  ZINC001087843226   -0.1500
      2 C2         -8.1573    4.3769   51.9635 C.3     1  ZINC001087843226   -0.1500
      3 C3         -8.1866    3.0296   51.2390 C.3     1  ZINC001087843226    0.0700
      4 H4         -8.9149    3.0603   50.4286 H       1  ZINC001087843226    0.1000
      5 C5         -8.5536    1.9072   52.2324 C.3     1  ZINC001087843226    0.1300
      6 H6         -8.3159    2.2037   53.2540 H       1  ZINC001087843226    0.1000
      7 N7         -9.9704    1.5536   52.1142 N.am    1  ZINC001087843226   -0.7200
      8 C8        -10.5380    0.7327   53.0199 C.2     1  ZINC001087843226    0.5600
      9 O9         -9.8740    0.2845   53.9341 O.2     1  ZINC001087843226   -0.5300
     10 C10       -11.9682    0.3773   52.9016 C.ar    1  ZINC001087843226   -0.1400
     11 C11       -12.7036    0.8009   51.7950 C.ar    1  ZINC001087843226   -0.0800
     12 C12       -14.0379    0.4661   51.6902 C.ar    1  ZINC001087843226   -0.1300
     13 C13       -14.6432   -0.2869   52.6788 C.ar    1  ZINC001087843226   -0.0400
     14 C14       -16.1011   -0.6482   52.5561 C.3     1  ZINC001087843226   -0.1200
     15 C15       -13.9195   -0.7127   53.7823 C.ar    1  ZINC001087843226   -0.1100
     16 C16       -12.5837   -0.3887   53.8961 C.ar    1  ZINC001087843226   -0.0300
     17 C17       -12.0232   -0.9644   55.1788 C.3     1  ZINC001087843226   -0.0800
     18 C18       -13.2570   -1.2994   56.0437 C.3     1  ZINC001087843226   -0.1200
     19 C19       -14.3509   -1.5347   54.9784 C.3     1  ZINC001087843226   -0.0800
     20 C20        -7.6508    0.7299   51.7787 C.3     1  ZINC001087843226   -0.1400
     21 C21        -6.3655    1.4734   51.3373 C.3     1  ZINC001087843226    0.0400
     22 N22        -6.8494    2.7206   50.7002 N.3     1  ZINC001087843226   -0.5100
     23 C23        -5.9165    3.8300   50.9389 C.3     1  ZINC001087843226    0.1100
     24 C24        -4.5264    3.4138   50.5322 C.2     1  ZINC001087843226    0.0800
     25 N25        -4.1471    3.1475   49.3181 N.2     1  ZINC001087843226   -0.2700
     26 O26        -2.7729    2.7988   49.3694 O.3     1  ZINC001087843226    0.0300
     27 N27        -2.3879    2.8876   50.7321 N.2     1  ZINC001087843226   -0.2800
     28 C28        -3.4339    3.2584   51.4083 C.2     1  ZINC001087843226    0.0900
     29 C29        -3.4747    3.4776   52.8987 C.3     1  ZINC001087843226   -0.0900
     30 H30        -9.5472    5.6835   52.9642 H       1  ZINC001087843226    0.0600
     31 H31       -10.1952    4.9014   51.5025 H       1  ZINC001087843226    0.0600
     32 H32        -9.9988    3.9621   53.0017 H       1  ZINC001087843226    0.0600
     33 H33        -7.7606    5.1406   51.2945 H       1  ZINC001087843226    0.0800
     34 H34        -7.5218    4.3011   52.8459 H       1  ZINC001087843226    0.0700
     35 H35       -10.5000    1.9103   51.3839 H       1  ZINC001087843226    0.4000
     36 H36       -12.2304    1.3895   51.0229 H       1  ZINC001087843226    0.1300
     37 H37       -14.6104    0.7930   50.8348 H       1  ZINC001087843226    0.1300
     38 H38       -16.1971   -1.5963   52.0271 H       1  ZINC001087843226    0.0800
     39 H39       -16.5373   -0.7412   53.5506 H       1  ZINC001087843226    0.0700
     40 H40       -16.6232    0.1316   52.0017 H       1  ZINC001087843226    0.0700
     41 H41       -11.4511   -1.8683   54.9695 H       1  ZINC001087843226    0.0800
     42 H42       -11.3971   -0.2276   55.6822 H       1  ZINC001087843226    0.0900
     43 H43       -13.0868   -2.2039   56.6278 H       1  ZINC001087843226    0.0800
     44 H44       -13.5155   -0.4616   56.6911 H       1  ZINC001087843226    0.0700
     45 H45       -15.3165   -1.1855   55.3443 H       1  ZINC001087843226    0.0800
     46 H46       -14.4040   -2.5917   54.7178 H       1  ZINC001087843226    0.0800
     47 H47        -7.4452    0.0534   52.6083 H       1  ZINC001087843226    0.0800
     48 H48        -8.0990    0.1942   50.9419 H       1  ZINC001087843226    0.0800
     49 H49        -5.7444    1.7041   52.2029 H       1  ZINC001087843226    0.0600
     50 H50        -5.8080    0.8732   50.6183 H       1  ZINC001087843226    0.0800
     51 H51        -6.2231    4.6954   50.3515 H       1  ZINC001087843226    0.1200
     52 H52        -5.9231    4.0888   51.9978 H       1  ZINC001087843226    0.0700
     53 H53        -3.3174    4.5343   53.1150 H       1  ZINC001087843226    0.1000
     54 H54        -4.4459    3.1684   53.2849 H       1  ZINC001087843226    0.0900
     55 H55        -2.6903    2.8888   53.3741 H       1  ZINC001087843226    0.0900
@<TRIPOS>BOND
     1     1     2    1
     2     1    30    1
     3     1    31    1
     4     1    32    1
     5     2     3    1
     6     2    33    1
     7     2    34    1
     8     3     4    1
     9     3    22    1
    10     3     5    1
    11     5     6    1
    12     5     7    1
    13     5    20    1
    14     7     8   am
    15     7    35    1
    16     8     9    2
    17     8    10    1
    18    10    16   ar
    19    10    11   ar
    20    11    12   ar
    21    11    36    1
    22    12    13   ar
    23    12    37    1
    24    13    14    1
    25    13    15   ar
    26    14    38    1
    27    14    39    1
    28    14    40    1
    29    15    19    1
    30    15    16   ar
    31    16    17    1
    32    17    18    1
    33    17    41    1
    34    17    42    1
    35    18    19    1
    36    18    43    1
    37    18    44    1
    38    19    45    1
    39    19    46    1
    40    20    21    1
    41    20    47    1
    42    20    48    1
    43    21    22    1
    44    21    49    1
    45    21    50    1
    46    22    23    1
    47    23    24    1
    48    23    51    1
    49    23    52    1
    50    24    28    1
    51    24    25    2
    52    25    26    1
    53    26    27    1
    54    27    28    2
    55    28    29    1
    56    29    53    1
    57    29    54    1
    58    29    55    1
@<TRIPOS>SUBSTRUCTURE
     1 ZINC001087843226        1 TEMP              0 ****  ****    0 ROOT


##########                                Name:    ZINC000632456679
##########                DOCK_Rotatable_Bonds:                   6
##########                         Heavy_Atoms:                  24
##########                    Molecular_Weight:              374.82
##########                DOCK_Rotatable_Bonds:                   6
##########                       Formal_Charge:          -0.0299999
##########                     HBond_Acceptors:                   9
##########                        HBond_Donors:                   1
##########                         Heavy_Atoms:                  24
##########                          Grid_Score:          -27.325020
##########                     Grid_vdw_energy:          -26.863575
##########                      Grid_es_energy:           -0.461444
##########           Internal_energy_repulsive:           34.562168

@<TRIPOS>MOLECULE
ZINC000632456679
 40 41 1 0 0
SMALL
USER_CHARGES


@<TRIPOS>ATOM
      1 C1        -14.3308   -4.0790   56.1127 C.3     1  ZINC000632456679   -0.1600
      2 C2        -13.8501   -2.6271   56.1584 C.3     1  ZINC000632456679    0.1900
      3 C3        -15.0287   -1.6909   55.8843 C.3     1  ZINC000632456679   -0.2000
      4 C4        -13.2700   -2.3254   57.5415 C.3     1  ZINC000632456679   -0.6300
      5 S5        -11.6222   -3.0709   57.6818 S.o2    1  ZINC000632456679    2.4100
      6 C6        -11.2144   -2.7541   59.4208 C.3     1  ZINC000632456679   -0.6600
      7 O7        -11.7426   -4.4742   57.4934 O.2     1  ZINC000632456679   -0.9300
      8 O8        -10.7216   -2.3358   56.8645 O.2     1  ZINC000632456679   -0.9300
      9 N9        -12.8169   -2.4226   55.1402 N.am    1  ZINC000632456679   -0.7200
     10 C10       -12.2362   -1.2141   55.0026 C.2     1  ZINC000632456679    0.6200
     11 O11       -12.5711   -0.2934   55.7225 O.2     1  ZINC000632456679   -0.5000
     12 C12       -11.1945   -1.0086   53.9784 C.2     1  ZINC000632456679   -0.0900
     13 C13       -10.3123    0.0318   53.9049 C.2     1  ZINC000632456679   -0.1300
     14 C14        -9.5428   -0.2573   52.7445 C.2     1  ZINC000632456679    0.0400
     15 C15        -8.4288    0.5521   52.1909 C.ar    1  ZINC000632456679   -0.0500
     16 C16        -7.1624   -0.0095   52.0438 C.ar    1  ZINC000632456679   -0.0600
     17 C17        -6.1294    0.7472   51.5285 C.ar    1  ZINC000632456679   -0.1100
     18 C18        -6.3477    2.0618   51.1580 C.ar    1  ZINC000632456679   -0.0700
     19 C19        -7.6025    2.6273   51.3008 C.ar    1  ZINC000632456679   -0.0800
     20 Cl20       -7.8680    4.2780   50.8335 Cl      1  ZINC000632456679   -0.0400
     21 C21        -8.6473    1.8766   51.8104 C.ar    1  ZINC000632456679    0.1400
     22 F22        -9.8728    2.4281   51.9498 F       1  ZINC000632456679   -0.1100
     23 N23       -10.0125   -1.3805   52.2623 N.2     1  ZINC000632456679   -0.3200
     24 O24       -10.9202   -1.8124   52.9335 O.3     1  ZINC000632456679    0.1400
     25 H25       -14.7442   -4.2940   55.1273 H       1  ZINC000632456679    0.0900
     26 H26       -13.4912   -4.7460   56.3080 H       1  ZINC000632456679    0.0600
     27 H27       -15.0996   -4.2312   56.8703 H       1  ZINC000632456679    0.0700
     28 H28       -15.7975   -1.8431   56.6419 H       1  ZINC000632456679    0.0800
     29 H29       -14.6864   -0.6565   55.9169 H       1  ZINC000632456679    0.0800
     30 H30       -15.4421   -1.9059   54.8989 H       1  ZINC000632456679    0.0900
     31 H31       -13.1933   -1.2465   57.6759 H       1  ZINC000632456679    0.1600
     32 H32       -13.9234   -2.7415   58.3084 H       1  ZINC000632456679    0.1400
     33 H33       -11.9560   -3.2323   60.0608 H       1  ZINC000632456679    0.1300
     34 H34       -10.2274   -3.1601   59.6423 H       1  ZINC000632456679    0.1300
     35 H35       -11.2147   -1.6797   59.6042 H       1  ZINC000632456679    0.1300
     36 H36       -12.5507   -3.1569   54.5650 H       1  ZINC000632456679    0.4200
     37 H37       -10.2211    0.8766   54.5717 H       1  ZINC000632456679    0.1900
     38 H38        -6.9891   -1.0355   52.3329 H       1  ZINC000632456679    0.1500
     39 H39        -5.1478    0.3114   51.4146 H       1  ZINC000632456679    0.1500
     40 H40        -5.5355    2.6493   50.7561 H       1  ZINC000632456679    0.1500
@<TRIPOS>BOND
     1     1     2    1
     2     1    25    1
     3     1    26    1
     4     1    27    1
     5     2     3    1
     6     2     4    1
     7     2     9    1
     8     3    28    1
     9     3    29    1
    10     3    30    1
    11     4     5    1
    12     4    31    1
    13     4    32    1
    14     5     6    1
    15     5     7    2
    16     5     8    2
    17     6    33    1
    18     6    34    1
    19     6    35    1
    20     9    10   am
    21     9    36    1
    22    10    11    2
    23    10    12    1
    24    12    24    1
    25    12    13    2
    26    13    14    1
    27    13    37    1
    28    14    15    1
    29    14    23    2
    30    15    21   ar
    31    15    16   ar
    32    16    17   ar
    33    16    38    1
    34    17    18   ar
    35    17    39    1
    36    18    19   ar
    37    18    40    1
    38    19    20    1
    39    19    21   ar
    40    21    22    1
    41    23    24    1
@<TRIPOS>SUBSTRUCTURE
     1 ZINC000632456679        1 TEMP              0 ****  ****    0 ROOT


##########                                Name:    ZINC000123469372
##########                DOCK_Rotatable_Bonds:                   7
##########                         Heavy_Atoms:                  25
##########                    Molecular_Weight:             341.382
##########                DOCK_Rotatable_Bonds:                   7
##########                       Formal_Charge:          -0.0300001
##########                     HBond_Acceptors:                   5
##########                        HBond_Donors:                   2
##########                         Heavy_Atoms:                  25
##########                          Grid_Score:          -27.302612
##########                     Grid_vdw_energy:          -25.625216
##########                      Grid_es_energy:           -1.677396
##########           Internal_energy_repulsive:            9.516669

@<TRIPOS>MOLECULE
ZINC000123469372
 45 47 1 0 0
SMALL
USER_CHARGES


@<TRIPOS>ATOM
      1 C1        -10.0455    2.0597   59.5960 C.3     1  ZINC000123469372   -0.1700
      2 C2         -9.8299    0.7402   58.8519 C.3     1  ZINC000123469372    0.1500
      3 H3         -8.8779    0.3039   59.1543 H       1  ZINC000123469372    0.0900
      4 C4        -10.9652   -0.2278   59.1909 C.3     1  ZINC000123469372   -0.1600
      5 C5        -10.4555   -1.2894   60.1676 C.3     1  ZINC000123469372    0.1500
      6 H6         -9.5515   -1.7478   59.7669 H       1  ZINC000123469372    0.1100
      7 O7        -11.4581   -2.2916   60.3478 O.3     1  ZINC000123469372   -0.5500
      8 C8        -10.1461   -0.6443   61.4941 C.ar    1  ZINC000123469372   -0.1200
      9 C9         -8.8549   -0.6633   61.9874 C.ar    1  ZINC000123469372   -0.1100
     10 C10        -8.5711   -0.0716   63.2041 C.ar    1  ZINC000123469372   -0.1200
     11 C11        -9.5784    0.5393   63.9272 C.ar    1  ZINC000123469372   -0.1200
     12 C12       -10.8694    0.5591   63.4335 C.ar    1  ZINC000123469372   -0.1200
     13 C13       -11.1525   -0.0288   62.2148 C.ar    1  ZINC000123469372   -0.1100
     14 N14        -9.8160    0.9903   57.4084 N.am    1  ZINC000123469372   -0.7100
     15 C15        -8.6738    1.3679   56.8010 C.2     1  ZINC000123469372    0.5700
     16 O16        -7.6533    1.4998   57.4513 O.2     1  ZINC000123469372   -0.5400
     17 C17        -8.6602    1.6193   55.3604 C.2     1  ZINC000123469372   -0.2200
     18 C18        -7.5008    1.9436   54.7366 C.2     1  ZINC000123469372    0.0000
     19 C19        -7.5481    2.2057   53.2897 C.ar    1  ZINC000123469372   -0.1200
     20 C20        -6.3899    2.2172   52.5139 C.ar    1  ZINC000123469372   -0.0900
     21 C21        -6.4815    2.4684   51.1582 C.ar    1  ZINC000123469372    0.0700
     22 F22        -5.3638    2.4809   50.3995 F       1  ZINC000123469372   -0.1400
     23 C23        -7.7161    2.7073   50.5726 C.ar    1  ZINC000123469372   -0.1100
     24 C24        -8.8703    2.6982   51.3344 C.ar    1  ZINC000123469372   -0.1200
     25 C25        -8.7976    2.4482   52.6926 C.ar    1  ZINC000123469372    0.1300
     26 O26        -9.9112    2.4331   53.4665 O.3     1  ZINC000123469372   -0.3000
     27 C27        -9.9333    1.5129   54.5618 C.3     1  ZINC000123469372    0.1100
     28 H28       -10.0559    1.8736   60.6699 H       1  ZINC000123469372    0.0700
     29 H29        -9.2367    2.7493   59.3544 H       1  ZINC000123469372    0.0600
     30 H30       -10.9975    2.4960   59.2936 H       1  ZINC000123469372    0.0600
     31 H31       -11.7873    0.3223   59.6485 H       1  ZINC000123469372    0.0900
     32 H32       -11.3149   -0.7114   58.2787 H       1  ZINC000123469372    0.0800
     33 H33       -11.2493   -2.9374   61.0367 H       1  ZINC000123469372    0.3700
     34 H34        -8.0680   -1.1407   61.4224 H       1  ZINC000123469372    0.1200
     35 H35        -7.5624   -0.0871   63.5898 H       1  ZINC000123469372    0.1200
     36 H36        -9.3568    1.0009   64.8781 H       1  ZINC000123469372    0.1200
     37 H37       -11.6564    1.0362   63.9986 H       1  ZINC000123469372    0.1200
     38 H38       -12.1610   -0.0134   61.8290 H       1  ZINC000123469372    0.1200
     39 H39       -10.6288    0.8841   56.8900 H       1  ZINC000123469372    0.4000
     40 H40        -6.5723    2.0079   55.2844 H       1  ZINC000123469372    0.1500
     41 H41        -5.4282    2.0315   52.9691 H       1  ZINC000123469372    0.1500
     42 H42        -7.7765    2.9025   49.5122 H       1  ZINC000123469372    0.1500
     43 H43        -9.8268    2.8859   50.8695 H       1  ZINC000123469372    0.1500
     44 H44       -10.0418    0.4985   54.1782 H       1  ZINC000123469372    0.0800
     45 H45       -10.7801    1.7428   55.2086 H       1  ZINC000123469372    0.1100
@<TRIPOS>BOND
     1     1     2    1
     2     1    28    1
     3     1    29    1
     4     1    30    1
     5     2     3    1
     6     2     4    1
     7     2    14    1
     8     4     5    1
     9     4    31    1
    10     4    32    1
    11     5     6    1
    12     5     7    1
    13     5     8    1
    14     7    33    1
    15     8    13   ar
    16     8     9   ar
    17     9    10   ar
    18     9    34    1
    19    10    11   ar
    20    10    35    1
    21    11    12   ar
    22    11    36    1
    23    12    13   ar
    24    12    37    1
    25    13    38    1
    26    14    15   am
    27    14    39    1
    28    15    16    2
    29    15    17    1
    30    17    27    1
    31    17    18    2
    32    18    19    1
    33    18    40    1
    34    19    25   ar
    35    19    20   ar
    36    20    21   ar
    37    20    41    1
    38    21    22    1
    39    21    23   ar
    40    23    24   ar
    41    23    42    1
    42    24    25   ar
    43    24    43    1
    44    25    26    1
    45    26    27    1
    46    27    44    1
    47    27    45    1
@<TRIPOS>SUBSTRUCTURE
     1 ZINC000123469372        1 TEMP              0 ****  ****    0 ROOT


##########                                Name:    ZINC000599228306
##########                DOCK_Rotatable_Bonds:                   8
##########                         Heavy_Atoms:                  25
##########                    Molecular_Weight:             379.382
##########                DOCK_Rotatable_Bonds:                   8
##########                       Formal_Charge:        -4.09782e-08
##########                     HBond_Acceptors:                  10
##########                        HBond_Donors:                   1
##########                         Heavy_Atoms:                  25
##########                          Grid_Score:          -27.293703
##########                     Grid_vdw_energy:          -24.978867
##########                      Grid_es_energy:           -2.314837
##########           Internal_energy_repulsive:           18.446350

@<TRIPOS>MOLECULE
ZINC000599228306
 44 44 1 0 0
SMALL
USER_CHARGES


@<TRIPOS>ATOM
      1 C1        -15.6112   -3.4048   58.5760 C.3     1  ZINC000599228306    0.0400
      2 O2        -14.9304   -2.3002   59.2277 O.3     1  ZINC000599228306   -0.3500
      3 C3        -14.5530   -2.4841   60.5079 C.2     1  ZINC000599228306    0.5100
      4 O4        -14.9454   -3.4553   61.1234 O.2     1  ZINC000599228306   -0.4800
      5 C5        -13.6631   -1.5057   61.1626 C.ar    1  ZINC000599228306   -0.1500
      6 C6        -14.1877   -0.5659   62.0528 C.ar    1  ZINC000599228306   -0.0100
      7 C7        -13.3490    0.3467   62.6617 C.ar    1  ZINC000599228306    0.0700
      8 F8        -13.8550    1.2564   63.5230 F       1  ZINC000599228306   -0.1200
      9 C9        -11.9894    0.3315   62.3921 C.ar    1  ZINC000599228306    0.0100
     10 C10       -11.4626   -0.5956   61.5122 C.ar    1  ZINC000599228306   -0.7100
     11 S11        -9.7327   -0.6057   61.1776 S.o2    1  ZINC000599228306    2.7000
     12 O12        -9.0870   -0.8856   62.4121 O.2     1  ZINC000599228306   -0.9200
     13 O13        -9.5543   -1.3963   60.0104 O.2     1  ZINC000599228306   -0.9300
     14 N14        -9.3041    0.9399   60.7655 N.am    1  ZINC000599228306   -1.1000
     15 C15        -9.9212    1.5864   59.6048 C.3     1  ZINC000599228306    0.1600
     16 H16       -10.6992    0.9393   59.1995 H       1  ZINC000599228306    0.1300
     17 C17       -10.5379    2.9199   60.0316 C.3     1  ZINC000599228306   -0.1700
     18 C18        -8.8728    1.8323   58.5505 C.2     1  ZINC000599228306    0.4700
     19 O19        -8.0602    0.9754   58.2951 O.2     1  ZINC000599228306   -0.4900
     20 O20        -8.8417    3.0033   57.8952 O.3     1  ZINC000599228306   -0.3400
     21 C21        -9.2607    2.9922   56.5050 C.3     1  ZINC000599228306    0.1200
     22 C22        -9.4799    4.4289   56.0269 C.3     1  ZINC000599228306   -0.1900
     23 C23        -8.1775    2.3301   55.6511 C.3     1  ZINC000599228306   -0.1400
     24 C24       -10.5665    2.2057   56.3722 C.3     1  ZINC000599228306   -0.1800
     25 C25       -12.2892   -1.5188   60.8991 C.ar    1  ZINC000599228306    0.2500
     26 F26       -11.7730   -2.4246   60.0398 F       1  ZINC000599228306   -0.0900
     27 H27       -15.8591   -3.1255   57.5520 H       1  ZINC000599228306    0.1100
     28 H28       -14.9596   -4.2786   58.5667 H       1  ZINC000599228306    0.0700
     29 H29       -16.5260   -3.6396   59.1202 H       1  ZINC000599228306    0.0700
     30 H30       -15.2467   -0.5526   62.2640 H       1  ZINC000599228306    0.1700
     31 H31       -11.3384    1.0477   62.8713 H       1  ZINC000599228306    0.1800
     32 H32        -8.6446    1.4172   61.2929 H       1  ZINC000599228306    0.4300
     33 H33       -10.9971    3.4009   59.1678 H       1  ZINC000599228306    0.0900
     34 H34       -11.2963    2.7420   60.7941 H       1  ZINC000599228306    0.0700
     35 H35        -9.7599    3.5669   60.4368 H       1  ZINC000599228306    0.0800
     36 H36        -8.5497    4.9892   56.1215 H       1  ZINC000599228306    0.0600
     37 H37        -9.7945    4.4206   54.9833 H       1  ZINC000599228306    0.0700
     38 H38       -10.2516    4.9006   56.6353 H       1  ZINC000599228306    0.0800
     39 H39        -8.0214    1.3065   55.9918 H       1  ZINC000599228306    0.0700
     40 H40        -8.4921    2.3217   54.6075 H       1  ZINC000599228306    0.0800
     41 H41        -7.2473    2.8904   55.7457 H       1  ZINC000599228306    0.0700
     42 H42       -11.3381    2.6774   56.9805 H       1  ZINC000599228306    0.0800
     43 H43       -10.8810    2.1974   55.3286 H       1  ZINC000599228306    0.0700
     44 H44       -10.4104    1.1822   56.7129 H       1  ZINC000599228306    0.0600
@<TRIPOS>BOND
     1     1     2    1
     2     1    27    1
     3     1    28    1
     4     1    29    1
     5     2     3    1
     6     3     4    2
     7     3     5    1
     8     5    25   ar
     9     5     6   ar
    10     6     7   ar
    11     6    30    1
    12     7     8    1
    13     7     9   ar
    14     9    10   ar
    15     9    31    1
    16    10    11    1
    17    10    25   ar
    18    11    12    2
    19    11    13    2
    20    11    14   am
    21    14    15    1
    22    14    32    1
    23    15    16    1
    24    15    17    1
    25    15    18    1
    26    17    33    1
    27    17    34    1
    28    17    35    1
    29    18    19    2
    30    18    20    1
    31    20    21    1
    32    21    22    1
    33    21    23    1
    34    21    24    1
    35    22    36    1
    36    22    37    1
    37    22    38    1
    38    23    39    1
    39    23    40    1
    40    23    41    1
    41    24    42    1
    42    24    43    1
    43    24    44    1
    44    25    26    1
@<TRIPOS>SUBSTRUCTURE
     1 ZINC000599228306        1 TEMP              0 ****  ****    0 ROOT


##########                                Name:    ZINC000467104849
##########                DOCK_Rotatable_Bonds:                   6
##########                         Heavy_Atoms:                  29
##########                    Molecular_Weight:             421.896
##########                DOCK_Rotatable_Bonds:                   6
##########                       Formal_Charge:           0.0200002
##########                     HBond_Acceptors:                   7
##########                        HBond_Donors:                   0
##########                         Heavy_Atoms:                  29
##########                          Grid_Score:          -27.249685
##########                     Grid_vdw_energy:          -26.657103
##########                      Grid_es_energy:           -0.592582
##########           Internal_energy_repulsive:           70.288063

@<TRIPOS>MOLECULE
ZINC000467104849
 54 56 1 0 0
SMALL
USER_CHARGES


@<TRIPOS>ATOM
      1 C1        -11.3578   -2.3697   52.4083 C.3     1  ZINC000467104849    0.0200
      2 O2        -10.0778   -1.7408   52.3167 O.3     1  ZINC000467104849   -0.3000
      3 C3        -10.0308   -0.4007   52.5435 C.ar    1  ZINC000467104849    0.1000
      4 C4        -11.1443    0.2594   53.0366 C.ar    1  ZINC000467104849   -0.1700
      5 C5        -11.0948    1.6220   53.2670 C.ar    1  ZINC000467104849   -0.1200
      6 C6         -9.9359    2.3284   53.0058 C.ar    1  ZINC000467104849   -0.0800
      7 C7         -9.8874    3.8133   53.2582 C.3     1  ZINC000467104849   -0.0400
      8 C8         -9.9864    4.5604   51.9267 C.3     1  ZINC000467104849   -0.1300
      9 C9        -11.0577    4.2163   54.1574 C.3     1  ZINC000467104849   -0.1600
     10 C10        -8.5884    4.1654   53.9363 C.2     1  ZINC000467104849    0.5300
     11 O11        -7.9220    5.0920   53.5263 O.2     1  ZINC000467104849   -0.5300
     12 N12        -8.1673    3.4505   54.9984 N.am    1  ZINC000467104849   -0.6100
     13 C13        -6.9026    3.7754   55.6768 C.3     1  ZINC000467104849    0.0600
     14 C14        -7.1755    3.8866   57.1811 C.3     1  ZINC000467104849    0.0500
     15 O15        -7.8496    2.7069   57.6257 O.3     1  ZINC000467104849   -0.3700
     16 C16        -9.1317    2.5044   57.0265 C.3     1  ZINC000467104849    0.1300
     17 H17        -9.7645    3.3709   57.2189 H       1  ZINC000467104849    0.0800
     18 C18        -9.7726    1.2730   57.6128 C.ar    1  ZINC000467104849   -0.0900
     19 C19       -11.1109    1.0151   57.3831 C.ar    1  ZINC000467104849   -0.0500
     20 C20       -11.7006   -0.1139   57.9201 C.ar    1  ZINC000467104849   -0.1400
     21 C21       -10.9502   -0.9874   58.6881 C.ar    1  ZINC000467104849    0.1200
     22 F22       -11.5254   -2.0914   59.2130 F       1  ZINC000467104849   -0.1200
     23 C23        -9.6082   -0.7285   58.9178 C.ar    1  ZINC000467104849   -0.0800
     24 Cl24       -8.6650   -1.8225   59.8808 Cl      1  ZINC000467104849   -0.0400
     25 C25        -9.0199    0.3992   58.3754 C.ar    1  ZINC000467104849   -0.0700
     26 C26        -8.9616    2.3259   55.5177 C.3     1  ZINC000467104849    0.0900
     27 C27        -8.8204    1.6754   52.5139 C.ar    1  ZINC000467104849   -0.1600
     28 C28        -8.8618    0.3096   52.2859 C.ar    1  ZINC000467104849    0.1100
     29 O29        -7.7658   -0.3340   51.8022 O.3     1  ZINC000467104849   -0.3000
     30 C30        -6.6011    0.4586   51.5625 C.3     1  ZINC000467104849    0.0200
     31 H31       -11.2541   -3.4357   52.2058 H       1  ZINC000467104849    0.1000
     32 H32       -11.7614   -2.2279   53.4109 H       1  ZINC000467104849    0.0600
     33 H33       -12.0341   -1.9252   51.6782 H       1  ZINC000467104849    0.0600
     34 H34       -12.0514   -0.2901   53.2407 H       1  ZINC000467104849    0.1400
     35 H35       -11.9636    2.1355   53.6514 H       1  ZINC000467104849    0.1300
     36 H36       -10.9625    4.3756   51.4781 H       1  ZINC000467104849    0.0700
     37 H37        -9.8626    5.6295   52.0997 H       1  ZINC000467104849    0.0700
     38 H38        -9.2047    4.2084   51.2534 H       1  ZINC000467104849    0.0700
     39 H39       -10.9394    3.7535   55.1371 H       1  ZINC000467104849    0.0700
     40 H40       -11.0748    5.3006   54.2674 H       1  ZINC000467104849    0.0700
     41 H41       -11.9929    3.8819   53.7082 H       1  ZINC000467104849    0.0700
     42 H42        -6.1741    2.9855   55.4933 H       1  ZINC000467104849    0.0800
     43 H43        -6.5182    4.7241   55.3022 H       1  ZINC000467104849    0.1100
     44 H44        -6.2313    3.9898   57.7157 H       1  ZINC000467104849    0.1100
     45 H45        -7.8012    4.7581   57.3741 H       1  ZINC000467104849    0.0600
     46 H46       -11.6966    1.6965   56.7838 H       1  ZINC000467104849    0.1500
     47 H47       -12.7465   -0.3144   57.7407 H       1  ZINC000467104849    0.1500
     48 H48        -7.9741    0.6013   58.5536 H       1  ZINC000467104849    0.1500
     49 H49        -9.9399    2.3127   55.0371 H       1  ZINC000467104849    0.1100
     50 H50        -8.4399    1.3907   55.3152 H       1  ZINC000467104849    0.0800
     51 H51        -7.9161    2.2297   52.3108 H       1  ZINC000467104849    0.1400
     52 H52        -6.8328    1.2328   50.8310 H       1  ZINC000467104849    0.0600
     53 H53        -6.2801    0.9237   52.4946 H       1  ZINC000467104849    0.0600
     54 H54        -5.8023   -0.1762   51.1792 H       1  ZINC000467104849    0.1000
@<TRIPOS>BOND
     1     1     2    1
     2     1    31    1
     3     1    32    1
     4     1    33    1
     5     2     3    1
     6     3    28   ar
     7     3     4   ar
     8     4     5   ar
     9     4    34    1
    10     5     6   ar
    11     5    35    1
    12     6     7    1
    13     6    27   ar
    14     7     8    1
    15     7     9    1
    16     7    10    1
    17     8    36    1
    18     8    37    1
    19     8    38    1
    20     9    39    1
    21     9    40    1
    22     9    41    1
    23    10    11    2
    24    10    12   am
    25    12    26    1
    26    12    13    1
    27    13    14    1
    28    13    42    1
    29    13    43    1
    30    14    15    1
    31    14    44    1
    32    14    45    1
    33    15    16    1
    34    16    17    1
    35    16    18    1
    36    16    26    1
    37    18    25   ar
    38    18    19   ar
    39    19    20   ar
    40    19    46    1
    41    20    21   ar
    42    20    47    1
    43    21    22    1
    44    21    23   ar
    45    23    24    1
    46    23    25   ar
    47    25    48    1
    48    26    49    1
    49    26    50    1
    50    27    28   ar
    51    27    51    1
    52    28    29    1
    53    29    30    1
    54    30    52    1
    55    30    53    1
    56    30    54    1
@<TRIPOS>SUBSTRUCTURE
     1 ZINC000467104849        1 TEMP              0 ****  ****    0 ROOT


##########                                Name:    ZINC000863208514
##########                DOCK_Rotatable_Bonds:                   6
##########                         Heavy_Atoms:                  19
##########                    Molecular_Weight:             368.657
##########                DOCK_Rotatable_Bonds:                   6
##########                       Formal_Charge:           0.0100005
##########                     HBond_Acceptors:                   7
##########                        HBond_Donors:                   2
##########                         Heavy_Atoms:                  19
##########                          Grid_Score:          -27.216484
##########                     Grid_vdw_energy:          -24.711336
##########                      Grid_es_energy:           -2.505147
##########           Internal_energy_repulsive:            8.550849

@<TRIPOS>MOLECULE
ZINC000863208514
 31 31 1 0 0
SMALL
USER_CHARGES


@<TRIPOS>ATOM
      1 C1         -1.4787    4.3858   51.1601 C.3     1  ZINC000863208514    0.0900
      2 N2         -2.8759    3.9867   50.9739 N.am    1  ZINC000863208514   -0.6100
      3 C3         -3.9554    4.8558   51.4487 C.3     1  ZINC000863208514    0.0700
      4 C4         -3.1682    2.8199   50.3659 C.2     1  ZINC000863208514    0.5100
      5 O5         -2.2744    2.0997   49.9743 O.2     1  ZINC000863208514   -0.5400
      6 C6         -4.6055    2.4102   50.1728 C.3     1  ZINC000863208514    0.1100
      7 N7         -5.1033    1.7825   51.3994 N.am    1  ZINC000863208514   -0.6600
      8 C8         -6.4296    1.6440   51.5951 C.2     1  ZINC000863208514    0.5600
      9 S9         -7.5326    2.2034   50.4113 S.2     1  ZINC000863208514   -0.6000
     10 N10        -6.8875    1.0651   52.7228 N.am    1  ZINC000863208514   -0.6300
     11 C11        -8.2656    0.9211   52.9262 C.ar    1  ZINC000863208514    0.1200
     12 C12        -8.9112   -0.2375   52.5187 C.ar    1  ZINC000863208514   -0.0300
     13 C13       -10.2719   -0.3774   52.7211 C.ar    1  ZINC000863208514   -0.0200
     14 Cl14      -11.0798   -1.8272   52.2119 Cl      1  ZINC000863208514   -0.0300
     15 C15       -10.9906    0.6370   53.3297 C.ar    1  ZINC000863208514   -0.0600
     16 Br16      -12.8513    0.4416   53.6045 Br      1  ZINC000863208514   -0.0100
     17 C17       -10.3501    1.7937   53.7378 C.ar    1  ZINC000863208514   -0.1100
     18 C18        -8.9889    1.9370   53.5423 C.ar    1  ZINC000863208514    0.1100
     19 F19        -8.3636    3.0664   53.9407 F       1  ZINC000863208514   -0.1200
     20 H20        -1.4407    5.3504   51.6662 H       1  ZINC000863208514    0.0800
     21 H21        -0.9646    3.6381   51.7641 H       1  ZINC000863208514    0.0700
     22 H22        -0.9911    4.4658   50.1885 H       1  ZINC000863208514    0.0700
     23 H23        -4.2385    5.5493   50.6568 H       1  ZINC000863208514    0.0700
     24 H24        -4.8170    4.2477   51.7242 H       1  ZINC000863208514    0.0800
     25 H25        -3.6140    5.4172   52.3184 H       1  ZINC000863208514    0.0800
     26 H26        -5.2067    3.2904   49.9453 H       1  ZINC000863208514    0.1200
     27 H27        -4.6735    1.7007   49.3482 H       1  ZINC000863208514    0.1200
     28 H28        -4.4784    1.4667   52.0707 H       1  ZINC000863208514    0.4100
     29 H29        -6.2624    0.7481   53.3936 H       1  ZINC000863208514    0.4200
     30 H30        -8.3513   -1.0294   52.0435 H       1  ZINC000863208514    0.1800
     31 H31       -10.9132    2.5838   54.2124 H       1  ZINC000863208514    0.1600
@<TRIPOS>BOND
     1     1     2    1
     2     1    20    1
     3     1    21    1
     4     1    22    1
     5     2     3    1
     6     2     4   am
     7     3    23    1
     8     3    24    1
     9     3    25    1
    10     4     5    2
    11     4     6    1
    12     6     7    1
    13     6    26    1
    14     6    27    1
    15     7     8   am
    16     7    28    1
    17     8     9    2
    18     8    10   am
    19    10    11    1
    20    10    29    1
    21    11    18   ar
    22    11    12   ar
    23    12    13   ar
    24    12    30    1
    25    13    14    1
    26    13    15   ar
    27    15    16    1
    28    15    17   ar
    29    17    18   ar
    30    17    31    1
    31    18    19    1
@<TRIPOS>SUBSTRUCTURE
     1 ZINC000863208514        1 TEMP              0 ****  ****    0 ROOT


##########                                Name:    ZINC001231746020
##########                DOCK_Rotatable_Bonds:                   3
##########                         Heavy_Atoms:                  19
##########                    Molecular_Weight:             348.667
##########                DOCK_Rotatable_Bonds:                   3
##########                       Formal_Charge:          -0.0399997
##########                     HBond_Acceptors:                   4
##########                        HBond_Donors:                   2
##########                         Heavy_Atoms:                  19
##########                          Grid_Score:          -27.174063
##########                     Grid_vdw_energy:          -25.396820
##########                      Grid_es_energy:           -1.777242
##########           Internal_energy_repulsive:           11.876623

@<TRIPOS>MOLECULE
ZINC001231746020
 38 39 1 0 0
SMALL
USER_CHARGES


@<TRIPOS>ATOM
      1 C1         -5.2790    5.7787   51.7037 C.3     1  ZINC001231746020   -0.1500
      2 C2         -5.3004    4.2575   51.8659 C.3     1  ZINC001231746020   -0.0900
      3 H3         -5.7658    3.9981   52.8168 H       1  ZINC001231746020    0.0800
      4 C4         -6.0821    3.6408   50.7369 C.3     1  ZINC001231746020   -0.1400
      5 C5         -6.8125    2.3446   51.1318 C.3     1  ZINC001231746020   -0.0100
      6 N6         -5.9965    1.4374   51.9670 N.4     1  ZINC001231746020   -0.3800
      7 H7         -5.9996    1.7748   52.9179 H       1  ZINC001231746020    0.4100
      8 C8         -6.5905    0.0943   51.9347 C.3     1  ZINC001231746020    0.0700
      9 C9         -7.9503    0.1306   52.5833 C.ar    1  ZINC001231746020   -0.3100
     10 C10        -8.9682   -0.6682   52.0969 C.ar    1  ZINC001231746020   -0.0300
     11 C11       -10.2168   -0.6372   52.6904 C.ar    1  ZINC001231746020   -0.1600
     12 Cl12      -11.4946   -1.6407   52.0790 Cl      1  ZINC001231746020   -0.0800
     13 C13       -10.4474    0.1973   53.7750 C.ar    1  ZINC001231746020    0.3100
     14 O14       -11.6737    0.2295   54.3608 O.3     1  ZINC001231746020   -0.6300
     15 C15        -9.4236    0.9985   54.2608 C.ar    1  ZINC001231746020   -0.2100
     16 Br16       -9.7331    2.1372   55.7385 Br      1  ZINC001231746020   -0.0600
     17 C17        -8.1759    0.9588   53.6674 C.ar    1  ZINC001231746020   -0.0200
     18 C18        -4.6326    1.3589   51.5029 C.3     1  ZINC001231746020   -0.0200
     19 C19        -3.7943    2.3447   52.3328 C.3     1  ZINC001231746020   -0.1800
     20 C20        -3.8512    3.7111   51.8280 C.3     1  ZINC001231746020    0.1000
     21 H21        -3.2130    4.3463   52.4422 H       1  ZINC001231746020    0.0700
     22 O22        -3.3763    3.7335   50.4804 O.3     1  ZINC001231746020   -0.5600
     23 H23        -6.3000    6.1602   51.7190 H       1  ZINC001231746020    0.0600
     24 H24        -4.8092    6.0363   50.7544 H       1  ZINC001231746020    0.0700
     25 H25        -4.7126    6.2235   52.5219 H       1  ZINC001231746020    0.0600
     26 H26        -6.8189    4.3637   50.3867 H       1  ZINC001231746020    0.1000
     27 H27        -5.3970    3.4178   49.9189 H       1  ZINC001231746020    0.1000
     28 H28        -7.7159    2.6072   51.6822 H       1  ZINC001231746020    0.1200
     29 H29        -7.1018    1.8165   50.2233 H       1  ZINC001231746020    0.1200
     30 H30        -6.6901   -0.2343   50.9001 H       1  ZINC001231746020    0.1200
     31 H31        -5.9481   -0.6002   52.4762 H       1  ZINC001231746020    0.1200
     32 H32        -8.7881   -1.3174   51.2527 H       1  ZINC001231746020    0.1100
     33 H33        -7.3773    1.5783   54.0484 H       1  ZINC001231746020    0.1100
     34 H34        -4.2540    0.3460   51.6403 H       1  ZINC001231746020    0.1400
     35 H35        -4.5856    1.6303   50.4483 H       1  ZINC001231746020    0.1300
     36 H36        -4.1580    2.3354   53.3603 H       1  ZINC001231746020    0.0900
     37 H37        -2.7559    2.0136   52.3265 H       1  ZINC001231746020    0.1100
     38 H38        -3.8870    3.1796   49.8742 H       1  ZINC001231746020    0.3900
@<TRIPOS>BOND
     1     1     2    1
     2     1    23    1
     3     1    24    1
     4     1    25    1
     5     2     3    1
     6     2    20    1
     7     2     4    1
     8     4     5    1
     9     4    26    1
    10     4    27    1
    11     5     6    1
    12     5    28    1
    13     5    29    1
    14     6     7    1
    15     6     8    1
    16     6    18    1
    17     8     9    1
    18     8    30    1
    19     8    31    1
    20     9    17   ar
    21     9    10   ar
    22    10    11   ar
    23    10    32    1
    24    11    12    1
    25    11    13   ar
    26    13    14    1
    27    13    15   ar
    28    15    16    1
    29    15    17   ar
    30    17    33    1
    31    18    19    1
    32    18    34    1
    33    18    35    1
    34    19    20    1
    35    19    36    1
    36    19    37    1
    37    20    21    1
    38    20    22    1
    39    22    38    1
@<TRIPOS>SUBSTRUCTURE
     1 ZINC001231746020        1 TEMP              0 ****  ****    0 ROOT


##########                                Name:    ZINC000774689801
##########                DOCK_Rotatable_Bonds:                   4
##########                         Heavy_Atoms:                  24
##########                    Molecular_Weight:             347.395
##########                DOCK_Rotatable_Bonds:                   4
##########                       Formal_Charge:         -0.00999961
##########                     HBond_Acceptors:                   8
##########                        HBond_Donors:                   1
##########                         Heavy_Atoms:                  24
##########                          Grid_Score:          -27.172400
##########                     Grid_vdw_energy:          -27.517246
##########                      Grid_es_energy:            0.344847
##########           Internal_energy_repulsive:            3.917224

@<TRIPOS>MOLECULE
ZINC000774689801
 41 44 1 0 0
SMALL
USER_CHARGES


@<TRIPOS>ATOM
      1 C1         -6.3987    1.8906   50.3900 C.3     1  ZINC000774689801   -0.1200
      2 C2         -5.8918    2.4941   51.6745 C.2     1  ZINC000774689801    0.0600
      3 C3         -6.7118    2.8135   52.6887 C.2     1  ZINC000774689801   -0.2800
      4 C4         -8.1636    2.6224   52.6802 C.2     1  ZINC000774689801    0.5500
      5 O5         -8.8983    3.5558   52.4187 O.2     1  ZINC000774689801   -0.4900
      6 O6         -8.6862    1.4111   52.9622 O.3     1  ZINC000774689801   -0.3400
      7 C7        -10.1333    1.2952   52.9357 C.3     1  ZINC000774689801    0.0900
      8 C8        -10.5460   -0.0682   53.4941 C.3     1  ZINC000774689801   -0.1300
      9 H9        -10.1201   -0.2179   54.4862 H       1  ZINC000774689801    0.1200
     10 C10       -12.0868   -0.1892   53.5428 C.3     1  ZINC000774689801   -0.1300
     11 C11       -12.2977   -1.6756   53.1790 C.3     1  ZINC000774689801    0.1000
     12 N12       -11.1174   -2.0582   52.3951 N.am    1  ZINC000774689801   -0.7400
     13 C13       -10.1132   -1.1762   52.5593 C.2     1  ZINC000774689801    0.5200
     14 O14        -9.0242   -1.2573   52.0319 O.2     1  ZINC000774689801   -0.5100
     15 S15        -5.7997    3.4915   54.0265 S.3     1  ZINC000774689801    0.3000
     16 C16        -4.2861    3.3181   53.1459 C.2     1  ZINC000774689801    0.1000
     17 C17        -4.5398    2.7531   51.8917 C.2     1  ZINC000774689801   -0.2500
     18 C18        -3.3765    2.5332   51.0115 C.2     1  ZINC000774689801    0.5700
     19 O19        -3.5179    2.0464   49.9039 O.2     1  ZINC000774689801   -0.5000
     20 N20        -2.1486    2.8841   51.4606 N.am    1  ZINC000774689801   -0.5500
     21 C21        -0.8477    2.7612   50.7804 C.3     1  ZINC000774689801    0.0900
     22 C22         0.1102    3.6981   51.5447 C.3     1  ZINC000774689801   -0.1300
     23 C23        -0.5349    3.7337   52.9469 C.3     1  ZINC000774689801   -0.0800
     24 C24        -2.0022    3.4292   52.6948 C.2     1  ZINC000774689801    0.4200
     25 N25        -3.0226    3.6248   53.4870 N.2     1  ZINC000774689801   -0.5100
     26 H26        -6.4043    0.8040   50.4765 H       1  ZINC000774689801    0.0800
     27 H27        -7.4113    2.2448   50.1968 H       1  ZINC000774689801    0.1000
     28 H28        -5.7472    2.1862   49.5677 H       1  ZINC000774689801    0.0800
     29 H29       -10.5723    2.0853   53.5448 H       1  ZINC000774689801    0.0900
     30 H30       -10.4866    1.3893   51.9088 H       1  ZINC000774689801    0.0800
     31 H31       -12.4635    0.0248   54.5430 H       1  ZINC000774689801    0.1000
     32 H32       -12.5528    0.4630   52.8042 H       1  ZINC000774689801    0.0900
     33 H33       -12.3616   -2.2800   54.0839 H       1  ZINC000774689801    0.0800
     34 H34       -13.2016   -1.7932   52.5814 H       1  ZINC000774689801    0.0800
     35 H35       -11.0663   -2.8464   51.8321 H       1  ZINC000774689801    0.4100
     36 H36        -0.4907    1.7327   50.8332 H       1  ZINC000774689801    0.1000
     37 H37        -0.9346    3.0778   49.7410 H       1  ZINC000774689801    0.1000
     38 H38         1.1148    3.2774   51.5883 H       1  ZINC000774689801    0.1100
     39 H39         0.1241    4.6916   51.0965 H       1  ZINC000774689801    0.0900
     40 H40        -0.0928    2.9720   53.5892 H       1  ZINC000774689801    0.1200
     41 H41        -0.4221    4.7218   53.3932 H       1  ZINC000774689801    0.1200
@<TRIPOS>BOND
     1     1     2    1
     2     1    26    1
     3     1    27    1
     4     1    28    1
     5     2    17    1
     6     2     3    2
     7     3     4    1
     8     3    15    1
     9     4     5    2
    10     4     6    1
    11     6     7    1
    12     7     8    1
    13     7    29    1
    14     7    30    1
    15     8     9    1
    16     8    13    1
    17     8    10    1
    18    10    11    1
    19    10    31    1
    20    10    32    1
    21    11    12    1
    22    11    33    1
    23    11    34    1
    24    12    13   am
    25    12    35    1
    26    13    14    2
    27    15    16    1
    28    16    25    1
    29    16    17    2
    30    17    18    1
    31    18    19    2
    32    18    20   am
    33    20    24    1
    34    20    21    1
    35    21    22    1
    36    21    36    1
    37    21    37    1
    38    22    23    1
    39    22    38    1
    40    22    39    1
    41    23    24    1
    42    23    40    1
    43    23    41    1
    44    24    25    2
@<TRIPOS>SUBSTRUCTURE
     1 ZINC000774689801        1 TEMP              0 ****  ****    0 ROOT


##########                                Name:    ZINC000187810810
##########                DOCK_Rotatable_Bonds:                   7
##########                         Heavy_Atoms:                  27
##########                    Molecular_Weight:             386.414
##########                DOCK_Rotatable_Bonds:                   7
##########                       Formal_Charge:           0.0599998
##########                     HBond_Acceptors:                   8
##########                        HBond_Donors:                   1
##########                         Heavy_Atoms:                  27
##########                          Grid_Score:          -27.146852
##########                     Grid_vdw_energy:          -26.082714
##########                      Grid_es_energy:           -1.064139
##########           Internal_energy_repulsive:           39.180378

@<TRIPOS>MOLECULE
ZINC000187810810
 52 53 1 0 0
SMALL
USER_CHARGES


@<TRIPOS>ATOM
      1 C1         -7.6105    1.1618   51.3634 C.3     1  ZINC000187810810   -0.1800
      2 C2         -6.8494    2.4889   51.3849 C.3     1  ZINC000187810810    0.1400
      3 C3         -5.3457    2.2135   51.4474 C.3     1  ZINC000187810810   -0.1800
      4 C4         -7.1704    3.2813   50.1161 C.3     1  ZINC000187810810   -0.1400
      5 O5         -7.2496    3.2575   52.5499 O.3     1  ZINC000187810810   -0.3600
      6 C6         -8.5324    3.1477   52.9435 C.2     1  ZINC000187810810    0.6500
      7 O7         -9.4251    3.5513   52.2247 O.2     1  ZINC000187810810   -0.5600
      8 N8         -8.8264    2.5902   54.1348 N.am    1  ZINC000187810810   -0.6000
      9 C9        -10.2219    2.4563   54.5746 C.3     1  ZINC000187810810    0.1100
     10 C10       -10.3656    3.0941   55.9600 C.3     1  ZINC000187810810   -0.1400
     11 C11        -9.3436    2.4699   56.9130 C.3     1  ZINC000187810810    0.1800
     12 C12        -9.5073    3.0800   58.3066 C.3     1  ZINC000187810810   -0.1600
     13 N13        -9.5630    1.0233   56.9846 N.am    1  ZINC000187810810   -0.7100
     14 C14       -10.7534    0.5417   57.3941 C.2     1  ZINC000187810810    0.5500
     15 O15       -11.6443    1.3077   57.7055 O.2     1  ZINC000187810810   -0.5100
     16 C16       -10.9754   -0.9183   57.4647 C.ar    1  ZINC000187810810   -0.0900
     17 C17       -11.4684   -1.6067   56.3553 C.ar    1  ZINC000187810810   -0.0900
     18 C18       -11.6730   -2.9693   56.4278 C.ar    1  ZINC000187810810   -0.0900
     19 C19       -11.3909   -3.6530   57.5969 C.ar    1  ZINC000187810810   -0.0900
     20 C20       -10.9022   -2.9764   58.7007 C.ar    1  ZINC000187810810   -0.0800
     21 C21       -10.6874   -1.6152   58.6396 C.ar    1  ZINC000187810810   -0.1300
     22 C22       -10.1548   -0.8799   59.8424 C.3     1  ZINC000187810810    0.5200
     23 F23       -11.0247    0.1647   60.1732 F       1  ZINC000187810810   -0.1800
     24 F24       -10.0550   -1.7634   60.9226 F       1  ZINC000187810810   -0.1600
     25 F25        -8.8904   -0.3584   59.5481 F       1  ZINC000187810810   -0.1600
     26 C26        -7.9289    2.7460   56.3985 C.3     1  ZINC000187810810   -0.1500
     27 C27        -7.7579    2.0992   55.0157 C.3     1  ZINC000187810810    0.1300
     28 H28        -7.3818    0.5971   52.2673 H       1  ZINC000187810810    0.0900
     29 H29        -8.6817    1.3580   51.3188 H       1  ZINC000187810810    0.0600
     30 H30        -7.3102    0.5847   50.4888 H       1  ZINC000187810810    0.0700
     31 H31        -5.0453    1.6365   50.5728 H       1  ZINC000187810810    0.0700
     32 H32        -4.8035    3.1589   51.4626 H       1  ZINC000187810810    0.0600
     33 H33        -5.1170    1.6488   52.3513 H       1  ZINC000187810810    0.0900
     34 H34        -8.2417    3.4776   50.0715 H       1  ZINC000187810810    0.0700
     35 H35        -6.6282    4.2268   50.1313 H       1  ZINC000187810810    0.0700
     36 H36        -6.8700    2.7043   49.2415 H       1  ZINC000187810810    0.0800
     37 H37       -10.8780    2.9650   53.8683 H       1  ZINC000187810810    0.1000
     38 H38       -10.4882    1.4007   54.6289 H       1  ZINC000187810810    0.0700
     39 H39       -10.1872    4.1669   55.8869 H       1  ZINC000187810810    0.0900
     40 H40       -11.3720    2.9172   56.3393 H       1  ZINC000187810810    0.0900
     41 H41       -10.5145    2.8824   58.6736 H       1  ZINC000187810810    0.0600
     42 H42        -8.7795    2.6356   58.9855 H       1  ZINC000187810810    0.0800
     43 H43        -9.3445    4.1564   58.2534 H       1  ZINC000187810810    0.0700
     44 H44        -8.8516    0.4120   56.7373 H       1  ZINC000187810810    0.4000
     45 H45       -11.6897   -1.0740   55.4423 H       1  ZINC000187810810    0.1400
     46 H46       -12.0545   -3.5032   55.5700 H       1  ZINC000187810810    0.1400
     47 H47       -11.5531   -4.7195   57.6485 H       1  ZINC000187810810    0.1400
     48 H48       -10.6844   -3.5159   59.6105 H       1  ZINC000187810810    0.1500
     49 H49        -7.7734    3.8221   56.3213 H       1  ZINC000187810810    0.0800
     50 H50        -7.2011    2.3214   57.0900 H       1  ZINC000187810810    0.1000
     51 H51        -7.8230    1.0151   55.1087 H       1  ZINC000187810810    0.0700
     52 H52        -6.7884    2.3748   54.6007 H       1  ZINC000187810810    0.1000
@<TRIPOS>BOND
     1     1     2    1
     2     1    28    1
     3     1    29    1
     4     1    30    1
     5     2     3    1
     6     2     4    1
     7     2     5    1
     8     3    31    1
     9     3    32    1
    10     3    33    1
    11     4    34    1
    12     4    35    1
    13     4    36    1
    14     5     6    1
    15     6     7    2
    16     6     8   am
    17     8    27    1
    18     8     9    1
    19     9    10    1
    20     9    37    1
    21     9    38    1
    22    10    11    1
    23    10    39    1
    24    10    40    1
    25    11    12    1
    26    11    13    1
    27    11    26    1
    28    12    41    1
    29    12    42    1
    30    12    43    1
    31    13    14   am
    32    13    44    1
    33    14    15    2
    34    14    16    1
    35    16    21   ar
    36    16    17   ar
    37    17    18   ar
    38    17    45    1
    39    18    19   ar
    40    18    46    1
    41    19    20   ar
    42    19    47    1
    43    20    21   ar
    44    20    48    1
    45    21    22    1
    46    22    23    1
    47    22    24    1
    48    22    25    1
    49    26    27    1
    50    26    49    1
    51    26    50    1
    52    27    51    1
    53    27    52    1
@<TRIPOS>SUBSTRUCTURE
     1 ZINC000187810810        1 TEMP              0 ****  ****    0 ROOT


##########                                Name:    ZINC000742270208
##########                DOCK_Rotatable_Bonds:                   5
##########                         Heavy_Atoms:                  25
##########                    Molecular_Weight:             376.328
##########                DOCK_Rotatable_Bonds:                   5
##########                       Formal_Charge:                0.02
##########                     HBond_Acceptors:                   9
##########                        HBond_Donors:                   0
##########                         Heavy_Atoms:                  25
##########                          Grid_Score:          -27.132860
##########                     Grid_vdw_energy:          -26.637436
##########                      Grid_es_energy:           -0.495424
##########           Internal_energy_repulsive:           11.433155

@<TRIPOS>MOLECULE
ZINC000742270208
 37 38 1 0 0
SMALL
USER_CHARGES


@<TRIPOS>ATOM
      1 C1        -11.5922    0.2810   53.9809 C.3     1  ZINC000742270208   -0.1400
      2 C2        -10.3101    0.0615   53.1753 C.3     1  ZINC000742270208   -0.1400
      3 C3        -10.4977   -1.1286   52.2324 C.3     1  ZINC000742270208   -0.1400
      4 C4        -10.0055    1.2979   52.3693 C.2     1  ZINC000742270208    0.4000
      5 O5        -10.8957    2.0700   52.0836 O.2     1  ZINC000742270208   -0.4300
      6 C6         -8.6275    1.5682   51.9289 C.ar    1  ZINC000742270208   -0.1000
      7 C7         -8.2993    2.8060   51.3668 C.ar    1  ZINC000742270208   -0.0900
      8 C8         -7.0059    3.0516   50.9565 C.ar    1  ZINC000742270208   -0.0200
      9 C9         -6.0339    2.0769   51.0996 C.ar    1  ZINC000742270208   -0.6800
     10 S10        -4.3840    2.4006   50.5724 S.o2    1  ZINC000742270208    2.6600
     11 O11        -3.5538    1.4763   51.2620 O.2     1  ZINC000742270208   -0.9300
     12 O12        -4.4276    2.4992   49.1555 O.2     1  ZINC000742270208   -0.9000
     13 O13        -4.0092    3.7827   51.0881 O.3     1  ZINC000742270208   -0.6400
     14 C14        -2.8031    3.8309   51.7149 C.ar    1  ZINC000742270208    0.0500
     15 C15        -2.7395    3.8177   53.1014 C.ar    1  ZINC000742270208    0.0900
     16 F16        -3.8758    3.7569   53.8297 F       1  ZINC000742270208   -0.0900
     17 C17        -1.5099    3.8665   53.7379 C.ar    1  ZINC000742270208    0.1100
     18 F18        -1.4475    3.8536   55.0874 F       1  ZINC000742270208   -0.1000
     19 C19        -0.3453    3.9279   52.9921 C.ar    1  ZINC000742270208   -0.1100
     20 C20        -0.4067    3.9416   51.6091 C.ar    1  ZINC000742270208    0.1200
     21 F21         0.7313    4.0016   50.8834 F       1  ZINC000742270208   -0.1000
     22 C22        -1.6340    3.8877   50.9688 C.ar    1  ZINC000742270208    0.1200
     23 F23        -1.6934    3.9006   49.6192 F       1  ZINC000742270208   -0.0900
     24 C24        -6.3507    0.8495   51.6552 C.ar    1  ZINC000742270208   -0.0300
     25 C25        -7.6381    0.5907   52.0759 C.ar    1  ZINC000742270208   -0.0800
     26 H26       -11.8126   -0.6132   54.5639 H       1  ZINC000742270208    0.0700
     27 H27       -11.4586    1.1289   54.6526 H       1  ZINC000742270208    0.0600
     28 H28       -12.4189    0.4837   53.3000 H       1  ZINC000742270208    0.0600
     29 H29        -9.4834   -0.1411   53.8562 H       1  ZINC000742270208    0.1000
     30 H30       -11.3243   -0.9260   51.5515 H       1  ZINC000742270208    0.0700
     31 H31        -9.5843   -1.2849   51.6584 H       1  ZINC000742270208    0.0600
     32 H32       -10.7180   -2.0229   52.8154 H       1  ZINC000742270208    0.0700
     33 H33        -9.0570    3.5673   51.2538 H       1  ZINC000742270208    0.1500
     34 H34        -6.7509    4.0069   50.5222 H       1  ZINC000742270208    0.1500
     35 H35         0.6125    3.9654   53.4898 H       1  ZINC000742270208    0.1900
     36 H36        -5.5866    0.0939   51.7635 H       1  ZINC000742270208    0.1500
     37 H37        -7.8839   -0.3676   52.5092 H       1  ZINC000742270208    0.1500
@<TRIPOS>BOND
     1     1     2    1
     2     1    26    1
     3     1    27    1
     4     1    28    1
     5     2     3    1
     6     2     4    1
     7     2    29    1
     8     3    30    1
     9     3    31    1
    10     3    32    1
    11     4     5    2
    12     4     6    1
    13     6    25   ar
    14     6     7   ar
    15     7     8   ar
    16     7    33    1
    17     8     9   ar
    18     8    34    1
    19     9    10    1
    20     9    24   ar
    21    10    11    2
    22    10    12    2
    23    10    13    1
    24    13    14    1
    25    14    22   ar
    26    14    15   ar
    27    15    16    1
    28    15    17   ar
    29    17    18    1
    30    17    19   ar
    31    19    20   ar
    32    19    35    1
    33    20    21    1
    34    20    22   ar
    35    22    23    1
    36    24    25   ar
    37    24    36    1
    38    25    37    1
@<TRIPOS>SUBSTRUCTURE
     1 ZINC000742270208        1 TEMP              0 ****  ****    0 ROOT


##########                                Name:    ZINC000864477301
##########                DOCK_Rotatable_Bonds:                   6
##########                         Heavy_Atoms:                  26
##########                    Molecular_Weight:             393.891
##########                DOCK_Rotatable_Bonds:                   6
##########                       Formal_Charge:         -0.00999978
##########                     HBond_Acceptors:                   7
##########                        HBond_Donors:                   1
##########                         Heavy_Atoms:                  26
##########                          Grid_Score:          -27.131870
##########                     Grid_vdw_energy:          -26.799648
##########                      Grid_es_energy:           -0.332221
##########           Internal_energy_repulsive:            9.705981

@<TRIPOS>MOLECULE
ZINC000864477301
 46 47 1 0 0
SMALL
USER_CHARGES


@<TRIPOS>ATOM
      1 C1        -11.3675   -0.9792   52.5790 C.3     1  ZINC000864477301   -0.1500
      2 C2        -11.3054   -2.4774   52.8828 C.3     1  ZINC000864477301    0.0600
      3 O3        -12.4183   -2.8438   53.7404 O.3     1  ZINC000864477301   -0.3500
      4 C4        -12.2260   -2.7404   55.0697 C.2     1  ZINC000864477301    0.5100
      5 O5        -11.2004   -2.2511   55.4988 O.2     1  ZINC000864477301   -0.5000
      6 C6        -13.2624   -3.2222   56.0057 C.ar    1  ZINC000864477301   -0.1400
      7 C7        -13.8195   -4.4919   55.8419 C.ar    1  ZINC000864477301   -0.0300
      8 C8        -14.7870   -4.9355   56.7197 C.ar    1  ZINC000864477301   -0.1500
      9 C9        -15.2057   -4.1253   57.7599 C.ar    1  ZINC000864477301   -0.0100
     10 C10       -14.6577   -2.8657   57.9281 C.ar    1  ZINC000864477301   -0.4900
     11 S11       -15.1984   -1.8421   59.2564 S.o     1  ZINC000864477301    1.3800
     12 O12       -14.8920   -0.5330   58.7964 O.2     1  ZINC000864477301   -0.8100
     13 C13       -14.0681   -2.2899   60.6027 C.3     1  ZINC000864477301   -0.4600
     14 H14       -14.2325   -3.3299   60.8844 H       1  ZINC000864477301    0.1400
     15 C15       -12.6223   -2.1103   60.1358 C.3     1  ZINC000864477301   -0.1400
     16 C16       -14.3260   -1.4007   61.7918 C.2     1  ZINC000864477301    0.5500
     17 O17       -14.8101   -1.8649   62.8025 O.2     1  ZINC000864477301   -0.5100
     18 N18       -14.0190   -0.0898   61.7323 N.am    1  ZINC000864477301   -0.6800
     19 C19       -14.2585    0.7361   62.8368 C.ar    1  ZINC000864477301    0.1400
     20 C20       -15.5398    1.2074   63.0879 C.ar    1  ZINC000864477301   -0.0600
     21 C21       -16.6751    0.8306   62.1715 C.3     1  ZINC000864477301   -0.1100
     22 C22       -15.7734    2.0220   64.1792 C.ar    1  ZINC000864477301   -0.1100
     23 C23       -14.7329    2.3682   65.0211 C.ar    1  ZINC000864477301   -0.1000
     24 C24       -13.4547    1.9010   64.7741 C.ar    1  ZINC000864477301   -0.1100
     25 C25       -13.2152    1.0813   63.6879 C.ar    1  ZINC000864477301   -0.0200
     26 Cl26      -11.6109    0.4946   63.3785 Cl      1  ZINC000864477301   -0.0600
     27 C27       -13.6852   -2.4121   57.0616 C.ar    1  ZINC000864477301    0.0100
     28 H28       -12.3059   -0.7493   52.0744 H       1  ZINC000864477301    0.0700
     29 H29       -11.3086   -0.4167   53.5108 H       1  ZINC000864477301    0.0700
     30 H30       -10.5320   -0.7041   51.9351 H       1  ZINC000864477301    0.0800
     31 H31       -11.3642   -3.0399   51.9511 H       1  ZINC000864477301    0.0700
     32 H32       -10.3670   -2.7073   53.3873 H       1  ZINC000864477301    0.0700
     33 H33       -13.4940   -5.1251   55.0298 H       1  ZINC000864477301    0.1400
     34 H34       -15.2189   -5.9175   56.5941 H       1  ZINC000864477301    0.1400
     35 H35       -15.9640   -4.4773   58.4437 H       1  ZINC000864477301    0.1500
     36 H36       -11.9431   -2.3794   60.9448 H       1  ZINC000864477301    0.0700
     37 H37       -12.4357   -2.7535   59.2757 H       1  ZINC000864477301    0.0700
     38 H38       -12.4578   -1.0703   59.8541 H       1  ZINC000864477301    0.0700
     39 H39       -13.6320    0.2814   60.9239 H       1  ZINC000864477301    0.4100
     40 H40       -17.1403   -0.0885   62.5281 H       1  ZINC000864477301    0.0800
     41 H41       -17.4144    1.6314   62.1605 H       1  ZINC000864477301    0.0700
     42 H42       -16.2920    0.6760   61.1628 H       1  ZINC000864477301    0.0700
     43 H43       -16.7701    2.3891   64.3745 H       1  ZINC000864477301    0.1400
     44 H44       -14.9184    3.0051   65.8732 H       1  ZINC000864477301    0.1400
     45 H45       -12.6439    2.1736   65.4336 H       1  ZINC000864477301    0.1400
     46 H46       -13.2581   -1.4290   57.1941 H       1  ZINC000864477301    0.1400
@<TRIPOS>BOND
     1     1     2    1
     2     1    28    1
     3     1    29    1
     4     1    30    1
     5     2     3    1
     6     2    31    1
     7     2    32    1
     8     3     4    1
     9     4     5    2
    10     4     6    1
    11     6    27   ar
    12     6     7   ar
    13     7     8   ar
    14     7    33    1
    15     8     9   ar
    16     8    34    1
    17     9    10   ar
    18     9    35    1
    19    10    11    1
    20    10    27   ar
    21    11    12    2
    22    11    13    1
    23    13    14    1
    24    13    15    1
    25    13    16    1
    26    15    36    1
    27    15    37    1
    28    15    38    1
    29    16    17    2
    30    16    18   am
    31    18    19    1
    32    18    39    1
    33    19    25   ar
    34    19    20   ar
    35    20    21    1
    36    20    22   ar
    37    21    40    1
    38    21    41    1
    39    21    42    1
    40    22    23   ar
    41    22    43    1
    42    23    24   ar
    43    23    44    1
    44    24    25   ar
    45    24    45    1
    46    25    26    1
    47    27    46    1
@<TRIPOS>SUBSTRUCTURE
     1 ZINC000864477301        1 TEMP              0 ****  ****    0 ROOT


##########                                Name:    ZINC000285228948
##########                DOCK_Rotatable_Bonds:                   8
##########                         Heavy_Atoms:                  23
##########                    Molecular_Weight:             339.822
##########                DOCK_Rotatable_Bonds:                   8
##########                       Formal_Charge:           0.0299997
##########                     HBond_Acceptors:                   7
##########                        HBond_Donors:                   3
##########                         Heavy_Atoms:                  23
##########                          Grid_Score:          -27.121565
##########                     Grid_vdw_energy:          -26.757399
##########                      Grid_es_energy:           -0.364166
##########           Internal_energy_repulsive:           20.212170

@<TRIPOS>MOLECULE
ZINC000285228948
 45 46 1 0 0
SMALL
USER_CHARGES


@<TRIPOS>ATOM
      1 C1         -9.9704    1.0553   55.1388 C.3     1  <0>        -0.1600
      2 C2        -10.0959    1.4962   53.6790 C.3     1  <0>         0.1800
      3 H3        -10.0693    2.5846   53.6246 H       1  <0>         0.1100
      4 C4        -11.4005    0.9967   53.1138 C.ar    1  <0>        -0.0900
      5 C5        -12.1034    0.0042   53.7711 C.ar    1  <0>        -0.1000
      6 C6        -13.3000   -0.4543   53.2533 C.ar    1  <0>        -0.1100
      7 C7        -13.7943    0.0801   52.0768 C.ar    1  <0>        -0.0300
      8 Cl8       -15.2975   -0.4949   51.4260 Cl      1  <0>        -0.0700
      9 C9        -13.0904    1.0734   51.4194 C.ar    1  <0>        -0.1100
     10 C10       -11.8968    1.5352   51.9413 C.ar    1  <0>        -0.0900
     11 N11        -8.9835    0.9411   52.9040 N.am    1  <0>        -0.6100
     12 C12        -9.0387   -0.4449   52.4328 C.3     1  <0>         0.0600
     13 C13        -7.9093    1.7057   52.6244 C.2     1  <0>         0.5200
     14 O14        -7.8644    2.8537   53.0131 O.2     1  <0>        -0.5200
     15 C15        -6.7642    1.1343   51.8286 C.3     1  <0>         0.0300
     16 N16        -5.7441    2.1714   51.6244 N.3     1  <0>        -0.4900
     17 C17        -5.7637    2.6689   50.2251 C.3     1  <0>         0.0400
     18 C18        -4.3625    3.3083   50.0565 C.3     1  <0>        -0.1400
     19 C19        -3.4479    2.3525   50.8566 C.3     1  <0>         0.1100
     20 O20        -2.8262    1.4110   49.9795 O.3     1  <0>        -0.5400
     21 C21        -2.4023    3.1357   51.6078 C.2     1  <0>         0.5000
     22 N22        -2.7716    3.9921   52.5807 N.am    1  <0>        -0.8500
     23 O23        -1.2285    2.9953   51.3369 O.2     1  <0>        -0.5200
     24 C24        -4.3855    1.6282   51.8403 C.3     1  <0>         0.0600
     25 H25       -10.7980    1.4683   55.7154 H       1  <0>         0.0700
     26 H26        -9.9970   -0.0330   55.1932 H       1  <0>         0.0600
     27 H27        -9.0268    1.4166   55.5476 H       1  <0>         0.0700
     28 H28       -11.7172   -0.4132   54.6893 H       1  <0>         0.1400
     29 H29       -13.8488   -1.2300   53.7667 H       1  <0>         0.1300
     30 H30       -13.4757    1.4908   50.5009 H       1  <0>         0.1400
     31 H31       -11.3474    2.3107   51.4283 H       1  <0>         0.1300
     32 H32        -9.5396   -0.4801   51.4654 H       1  <0>         0.0600
     33 H33        -8.0259   -0.8350   52.3320 H       1  <0>         0.0800
     34 H34        -9.5915   -1.0509   53.1506 H       1  <0>         0.0800
     35 H35        -6.3269    0.2963   52.3716 H       1  <0>         0.1100
     36 H36        -7.1303    0.7892   50.8616 H       1  <0>         0.0700
     37 H37        -5.8968    1.8440   49.5252 H       1  <0>         0.0400
     38 H38        -6.5460    3.4165   50.0935 H       1  <0>         0.1200
     39 H39        -4.0724    3.3305   49.0061 H       1  <0>         0.0900
     40 H40        -4.3417    4.3105   50.4847 H       1  <0>         0.0900
     41 H41        -1.9587    1.1072   50.2799 H       1  <0>         0.3800
     42 H42        -2.0987    4.4971   53.0635 H       1  <0>         0.4000
     43 H43        -3.7104    4.1035   52.7982 H       1  <0>         0.4100
     44 H44        -4.0677    1.8194   52.8653 H       1  <0>         0.1100
     45 H45        -4.3778    0.5568   51.6401 H       1  <0>         0.0700
@<TRIPOS>BOND
     1     1     2    1
     2     1    25    1
     3     1    26    1
     4     1    27    1
     5     2     3    1
     6     2     4    1
     7     2    11    1
     8     4    10   ar
     9     4     5   ar
    10     5     6   ar
    11     5    28    1
    12     6     7   ar
    13     6    29    1
    14     7     8    1
    15     7     9   ar
    16     9    10   ar
    17     9    30    1
    18    10    31    1
    19    11    12    1
    20    11    13   am
    21    12    32    1
    22    12    33    1
    23    12    34    1
    24    13    14    2
    25    13    15    1
    26    15    16    1
    27    15    35    1
    28    15    36    1
    29    16    24    1
    30    16    17    1
    31    17    18    1
    32    17    37    1
    33    17    38    1
    34    18    19    1
    35    18    39    1
    36    18    40    1
    37    19    20    1
    38    19    21    1
    39    19    24    1
    40    20    41    1
    41    21    22   am
    42    21    23    2
    43    22    42    1
    44    22    43    1
    45    24    44    1
    46    24    45    1
@<TRIPOS>SUBSTRUCTURE
     1 <0>         1 TEMP              0 ****  ****    0 ROOT


##########                                Name:    ZINC000863216249
##########                DOCK_Rotatable_Bonds:                   5
##########                         Heavy_Atoms:                  23
##########                    Molecular_Weight:             396.351
##########                DOCK_Rotatable_Bonds:                   5
##########                       Formal_Charge:         -0.00999944
##########                     HBond_Acceptors:                   5
##########                        HBond_Donors:                   1
##########                         Heavy_Atoms:                  23
##########                          Grid_Score:          -27.121460
##########                     Grid_vdw_energy:          -26.939110
##########                      Grid_es_energy:           -0.182351
##########           Internal_energy_repulsive:           22.056807

@<TRIPOS>MOLECULE
ZINC000863216249
 45 48 1 0 0
SMALL
USER_CHARGES


@<TRIPOS>ATOM
      1 S1        -16.6936   -1.7584   61.0822 S.2     1  ZINC000863216249   -0.5900
      2 C2        -14.9991   -1.7162   60.8421 C.2     1  ZINC000863216249    0.5600
      3 N3        -14.2086   -1.0775   61.7274 N.am    1  ZINC000863216249   -0.6800
      4 C4        -14.8000   -0.4142   62.8920 C.3     1  ZINC000863216249    0.1200
      5 C5        -13.9852    0.8341   63.2363 C.3     1  ZINC000863216249    0.0400
      6 N6        -13.9857    1.0332   64.6917 N.3     1  ZINC000863216249   -0.5300
      7 C7        -15.1572    1.8133   65.1165 C.3     1  ZINC000863216249    0.0000
      8 C8        -15.1498    1.9457   66.6417 C.3     1  ZINC000863216249    0.0600
      9 O9        -13.9200    2.5460   67.0571 O.3     1  ZINC000863216249   -0.3800
     10 C10       -12.7583    1.8120   66.6607 C.3     1  ZINC000863216249    0.0600
     11 C11       -12.7415    1.6782   65.1357 C.3     1  ZINC000863216249    0.0200
     12 N12       -14.4550   -2.3265   59.7706 N.am    1  ZINC000863216249   -0.5100
     13 C13       -15.2096   -3.0509   58.7417 C.3     1  ZINC000863216249    0.1200
     14 C14       -14.1501   -3.5512   57.7549 C.3     1  ZINC000863216249   -0.1100
     15 C15       -14.2785   -4.9029   57.0634 C.3     1  ZINC000863216249   -0.1500
     16 C16       -14.4195   -3.6093   56.2562 C.3     1  ZINC000863216249   -0.1500
     17 C17       -12.8348   -3.0641   58.3058 C.ar    1  ZINC000863216249   -0.0700
     18 C18       -11.5408   -3.2111   57.8450 C.ar    1  ZINC000863216249   -0.0800
     19 C19       -10.4853   -2.6588   58.5463 C.ar    1  ZINC000863216249   -0.1000
     20 C20       -10.7272   -1.9566   59.7135 C.ar    1  ZINC000863216249   -0.0700
     21 Br21       -9.2852   -1.1995   60.6744 Br      1  ZINC000863216249   -0.0400
     22 C22       -12.0175   -1.8069   60.1781 C.ar    1  ZINC000863216249   -0.0900
     23 C23       -13.0886   -2.3570   59.4729 C.ar    1  ZINC000863216249    0.1400
     24 H24       -13.2481   -1.0570   61.5933 H       1  ZINC000863216249    0.4000
     25 H25       -15.8265   -0.1268   62.6642 H       1  ZINC000863216249    0.0900
     26 H26       -14.7942   -1.0975   63.7412 H       1  ZINC000863216249    0.1000
     27 H27       -12.9605    0.7067   62.8873 H       1  ZINC000863216249    0.0900
     28 H28       -14.4291    1.7031   62.7505 H       1  ZINC000863216249    0.0400
     29 H29       -15.1175    2.8045   64.6649 H       1  ZINC000863216249    0.0500
     30 H30       -16.0676    1.3045   64.7997 H       1  ZINC000863216249    0.1000
     31 H31       -15.9849    2.5713   66.9567 H       1  ZINC000863216249    0.1000
     32 H32       -15.2435    0.9580   67.0932 H       1  ZINC000863216249    0.0600
     33 H33       -11.8639    2.3409   66.9896 H       1  ZINC000863216249    0.1000
     34 H34       -12.7825    0.8205   67.1128 H       1  ZINC000863216249    0.0600
     35 H35       -11.8885    1.0709   64.8330 H       1  ZINC000863216249    0.0900
     36 H36       -12.6632    2.6673   64.6844 H       1  ZINC000863216249    0.0500
     37 H37       -15.7426   -3.8923   59.1844 H       1  ZINC000863216249    0.0900
     38 H38       -15.9075   -2.3801   58.2407 H       1  ZINC000863216249    0.0900
     39 H39       -13.3682   -5.4862   56.9248 H       1  ZINC000863216249    0.1100
     40 H40       -15.1836   -5.4806   57.2509 H       1  ZINC000863216249    0.1100
     41 H41       -15.4173   -3.3361   55.9131 H       1  ZINC000863216249    0.1100
     42 H42       -13.6019   -3.3418   55.5869 H       1  ZINC000863216249    0.1100
     43 H43       -11.3530   -3.7598   56.9339 H       1  ZINC000863216249    0.1400
     44 H44        -9.4746   -2.7754   58.1842 H       1  ZINC000863216249    0.1400
     45 H45       -12.2000   -1.2578   61.0902 H       1  ZINC000863216249    0.1900
@<TRIPOS>BOND
     1     1     2    2
     2     2     3   am
     3     2    12   am
     4     3     4    1
     5     3    24    1
     6     4     5    1
     7     4    25    1
     8     4    26    1
     9     5     6    1
    10     5    27    1
    11     5    28    1
    12     6    11    1
    13     6     7    1
    14     7     8    1
    15     7    29    1
    16     7    30    1
    17     8     9    1
    18     8    31    1
    19     8    32    1
    20     9    10    1
    21    10    11    1
    22    10    33    1
    23    10    34    1
    24    11    35    1
    25    11    36    1
    26    12    23    1
    27    12    13    1
    28    13    14    1
    29    13    37    1
    30    13    38    1
    31    14    16    1
    32    14    15    1
    33    14    17    1
    34    15    16    1
    35    15    39    1
    36    15    40    1
    37    16    41    1
    38    16    42    1
    39    17    23   ar
    40    17    18   ar
    41    18    19   ar
    42    18    43    1
    43    19    20   ar
    44    19    44    1
    45    20    21    1
    46    20    22   ar
    47    22    23   ar
    48    22    45    1
@<TRIPOS>SUBSTRUCTURE
     1 ZINC000863216249        1 TEMP              0 ****  ****    0 ROOT


##########                                Name:    ZINC000469391664
##########                DOCK_Rotatable_Bonds:                   6
##########                         Heavy_Atoms:                  29
##########                    Molecular_Weight:             408.524
##########                DOCK_Rotatable_Bonds:                   6
##########                       Formal_Charge:         -0.00999999
##########                     HBond_Acceptors:                   7
##########                        HBond_Donors:                   0
##########                         Heavy_Atoms:                  29
##########                          Grid_Score:          -27.073595
##########                     Grid_vdw_energy:          -26.813780
##########                      Grid_es_energy:           -0.259815
##########           Internal_energy_repulsive:           20.049881

@<TRIPOS>MOLECULE
ZINC000469391664
 53 56 1 0 0
SMALL
USER_CHARGES


@<TRIPOS>ATOM
      1 C1        -11.3734    2.1194   51.8945 C.3     1  ZINC000469391664   -0.1500
      2 C2        -11.8911    0.7584   52.3639 C.3     1  ZINC000469391664   -0.1000
      3 H3        -11.8353    0.0453   51.5414 H       1  ZINC000469391664    0.0800
      4 C4        -13.3450    0.8961   52.8216 C.3     1  ZINC000469391664   -0.1300
      5 C5        -13.8707   -0.4749   53.2582 C.3     1  ZINC000469391664    0.1100
      6 N6        -12.9668   -1.0254   54.2774 N.am    1  ZINC000469391664   -0.6100
      7 C7        -13.4446   -1.4381   55.4681 C.2     1  ZINC000469391664    0.5600
      8 O8        -14.6341   -1.3568   55.7073 O.2     1  ZINC000469391664   -0.5000
      9 C9        -12.5246   -1.9885   56.4812 C.ar    1  ZINC000469391664   -0.1100
     10 C10       -11.9286   -3.2362   56.2850 C.ar    1  ZINC000469391664   -0.0900
     11 C11       -11.0694   -3.7448   57.2352 C.ar    1  ZINC000469391664   -0.1000
     12 C12       -10.7934   -3.0247   58.3861 C.ar    1  ZINC000469391664   -0.0900
     13 C13       -11.3752   -1.7903   58.5945 C.ar    1  ZINC000469391664   -0.1000
     14 C14       -12.2384   -1.2591   57.6454 C.ar    1  ZINC000469391664    0.1500
     15 N15       -12.8262   -0.0147   57.8533 N.am    1  ZINC000469391664   -0.5800
     16 C16       -12.3552    1.1523   57.1034 C.3     1  ZINC000469391664    0.0900
     17 C17       -13.8286    0.1166   58.7446 C.2     1  ZINC000469391664    0.6100
     18 O18       -14.3427    1.2047   58.9263 O.2     1  ZINC000469391664   -0.5200
     19 C19       -14.2996   -1.0507   59.4946 C.2     1  ZINC000469391664   -0.2600
     20 C20       -14.1491   -1.2424   60.8397 C.2     1  ZINC000469391664   -0.0500
     21 C21       -14.6868   -2.4272   61.2833 C.2     1  ZINC000469391664   -0.1500
     22 C22       -15.2582   -3.1811   60.3367 C.2     1  ZINC000469391664   -0.2600
     23 S23       -15.1554   -2.4258   58.8103 S.3     1  ZINC000469391664    0.2300
     24 C24       -11.5323   -1.1176   53.9737 C.3     1  ZINC000469391664    0.1000
     25 C25       -11.0329    0.2607   53.5293 C.3     1  ZINC000469391664    0.1300
     26 H26       -11.1080    0.9606   54.3616 H       1  ZINC000469391664    0.1000
     27 N27        -9.6359    0.1596   53.0998 N.pl3   1  ZINC000469391664   -0.4500
     28 C28        -8.6162    1.0039   53.4475 C.2     1  ZINC000469391664   -0.0500
     29 C29        -7.5066    0.5471   52.8363 C.2     1  ZINC000469391664   -0.0300
     30 N30        -7.8397   -0.5462   52.1345 N.2     1  ZINC000469391664   -0.4900
     31 C31        -9.1126   -0.7873   52.2917 C.2     1  ZINC000469391664    0.1800
     32 H32       -10.3380    2.0214   51.5680 H       1  ZINC000469391664    0.0600
     33 H33       -11.9842    2.4738   51.0641 H       1  ZINC000469391664    0.0600
     34 H34       -11.4291    2.8327   52.7168 H       1  ZINC000469391664    0.0600
     35 H35       -13.3981    1.5901   53.6604 H       1  ZINC000469391664    0.0700
     36 H36       -13.9515    1.2728   51.9980 H       1  ZINC000469391664    0.0900
     37 H37       -14.8710   -0.3661   53.6773 H       1  ZINC000469391664    0.1000
     38 H38       -13.9032   -1.1445   52.3987 H       1  ZINC000469391664    0.0800
     39 H39       -12.1410   -3.8019   55.3900 H       1  ZINC000469391664    0.1400
     40 H40       -10.6093   -4.7097   57.0819 H       1  ZINC000469391664    0.1400
     41 H41       -10.1191   -3.4318   59.1251 H       1  ZINC000469391664    0.1400
     42 H42       -11.1553   -1.2352   59.4944 H       1  ZINC000469391664    0.1400
     43 H43       -12.9808    1.2947   56.2222 H       1  ZINC000469391664    0.0600
     44 H44       -12.4119    2.0380   57.7362 H       1  ZINC000469391664    0.0900
     45 H45       -11.3224    0.9926   56.7937 H       1  ZINC000469391664    0.0700
     46 H46       -13.6565   -0.5339   61.4891 H       1  ZINC000469391664    0.1500
     47 H47       -14.6505   -2.7278   62.3200 H       1  ZINC000469391664    0.1400
     48 H48       -15.7257   -4.1381   60.5158 H       1  ZINC000469391664    0.1600
     49 H49       -10.9896   -1.4329   54.8649 H       1  ZINC000469391664    0.1000
     50 H50       -11.3741   -1.8396   53.1726 H       1  ZINC000469391664    0.0800
     51 H51        -8.6878    1.8702   54.0885 H       1  ZINC000469391664    0.1700
     52 H52        -6.5212    0.9846   52.9000 H       1  ZINC000469391664    0.1700
     53 H53        -9.6584   -1.6048   51.8442 H       1  ZINC000469391664    0.2000
@<TRIPOS>BOND
     1     1     2    1
     2     1    32    1
     3     1    33    1
     4     1    34    1
     5     2     3    1
     6     2    25    1
     7     2     4    1
     8     4     5    1
     9     4    35    1
    10     4    36    1
    11     5     6    1
    12     5    37    1
    13     5    38    1
    14     6     7   am
    15     6    24    1
    16     7     8    2
    17     7     9    1
    18     9    14   ar
    19     9    10   ar
    20    10    11   ar
    21    10    39    1
    22    11    12   ar
    23    11    40    1
    24    12    13   ar
    25    12    41    1
    26    13    14   ar
    27    13    42    1
    28    14    15    1
    29    15    16    1
    30    15    17   am
    31    16    43    1
    32    16    44    1
    33    16    45    1
    34    17    18    2
    35    17    19    1
    36    19    23    1
    37    19    20    2
    38    20    21    1
    39    20    46    1
    40    21    22    2
    41    21    47    1
    42    22    23    1
    43    22    48    1
    44    24    25    1
    45    24    49    1
    46    24    50    1
    47    25    26    1
    48    25    27    1
    49    27    31    1
    50    27    28    1
    51    28    29    2
    52    28    51    1
    53    29    30    1
    54    29    52    1
    55    30    31    2
    56    31    53    1
@<TRIPOS>SUBSTRUCTURE
     1 ZINC000469391664        1 TEMP              0 ****  ****    0 ROOT


##########                                Name:    ZINC000956479608
##########                DOCK_Rotatable_Bonds:                   5
##########                         Heavy_Atoms:                  25
##########                    Molecular_Weight:             345.442
##########                DOCK_Rotatable_Bonds:                   5
##########                       Formal_Charge:          -0.0100001
##########                     HBond_Acceptors:                   6
##########                        HBond_Donors:                   1
##########                         Heavy_Atoms:                  25
##########                          Grid_Score:          -27.038465
##########                     Grid_vdw_energy:          -26.569208
##########                      Grid_es_energy:           -0.469258
##########           Internal_energy_repulsive:           32.193180

@<TRIPOS>MOLECULE
ZINC000956479608
 52 55 1 0 0
SMALL
USER_CHARGES


@<TRIPOS>ATOM
      1 C1         -6.7838    2.5218   55.9503 C.3     1  ZINC000956479608   -0.0900
      2 C2         -5.3918    3.0365   55.6885 C.2     1  ZINC000956479608   -0.1100
      3 C3         -4.7780    3.2334   54.4816 C.2     1  ZINC000956479608   -0.1000
      4 C4         -5.3496    2.9830   53.1450 C.2     1  ZINC000956479608    0.6100
      5 O5         -4.6258    2.6473   52.2275 O.2     1  ZINC000956479608   -0.5000
      6 N6         -6.6741    3.1263   52.9409 N.am    1  ZINC000956479608   -0.7100
      7 C7         -7.2415    2.8793   51.6130 C.3     1  ZINC000956479608    0.1800
      8 C8         -6.5850    3.8152   50.5960 C.3     1  ZINC000956479608   -0.1700
      9 C9         -6.9817    1.4259   51.2098 C.3     1  ZINC000956479608   -0.1500
     10 C10        -7.6107    0.4919   52.2483 C.3     1  ZINC000956479608    0.1100
     11 N11        -9.0325    0.8334   52.3919 N.am    1  ZINC000956479608   -0.6100
     12 C12        -9.9831   -0.1119   52.2533 C.2     1  ZINC000956479608    0.5500
     13 O13        -9.6682   -1.2574   52.0093 O.2     1  ZINC000956479608   -0.5400
     14 C14       -11.4373    0.2545   52.4017 C.3     1  ZINC000956479608   -0.1900
     15 H15       -11.7645    1.1229   51.8299 H       1  ZINC000956479608    0.1200
     16 C16       -12.4342   -0.8818   52.5887 C.3     1  ZINC000956479608   -0.1100
     17 H17       -12.0119   -1.8863   52.6155 H       1  ZINC000956479608    0.1000
     18 C18       -13.8133   -0.7905   51.9543 C.3     1  ZINC000956479608   -0.0900
     19 C19       -14.4631    0.5553   52.2763 C.3     1  ZINC000956479608   -0.1200
     20 C20       -14.4765    0.7398   53.7981 C.3     1  ZINC000956479608   -0.1200
     21 C21       -13.0579    1.0719   54.2612 C.3     1  ZINC000956479608   -0.0900
     22 C22       -12.0938    0.0166   53.7704 C.3     1  ZINC000956479608   -0.1100
     23 H23       -11.4639   -0.4339   54.5374 H       1  ZINC000956479608    0.1100
     24 C24        -9.3982    2.2249   52.6898 C.3     1  ZINC000956479608    0.1000
     25 C25        -8.7492    3.1395   51.6463 C.3     1  ZINC000956479608   -0.1400
     26 O26        -3.5471    3.7024   54.7606 O.3     1  ZINC000956479608    0.1200
     27 N27        -3.3709    3.8012   55.9524 N.2     1  ZINC000956479608   -0.3400
     28 C28        -4.4182    3.4339   56.6318 C.2     1  ZINC000956479608   -0.0100
     29 H29        -7.4808    3.3592   55.9818 H       1  ZINC000956479608    0.0800
     30 H30        -7.0741    1.8374   55.1531 H       1  ZINC000956479608    0.0900
     31 H31        -6.8034    1.9966   56.9052 H       1  ZINC000956479608    0.0800
     32 H32        -7.2516    3.3929   53.6731 H       1  ZINC000956479608    0.4100
     33 H33        -5.5110    3.6303   50.5725 H       1  ZINC000956479608    0.0800
     34 H34        -7.0070    3.6315   49.6080 H       1  ZINC000956479608    0.0700
     35 H35        -6.7693    4.8504   50.8832 H       1  ZINC000956479608    0.0600
     36 H36        -7.4251    1.2347   50.2325 H       1  ZINC000956479608    0.0800
     37 H37        -5.9074    1.2477   51.1635 H       1  ZINC000956479608    0.1000
     38 H38        -7.5149   -0.5416   51.9158 H       1  ZINC000956479608    0.0900
     39 H39        -7.1061    0.6179   53.2063 H       1  ZINC000956479608    0.0600
     40 H40       -13.7197   -0.8952   50.8735 H       1  ZINC000956479608    0.0700
     41 H41       -14.4405   -1.5942   52.3400 H       1  ZINC000956479608    0.0700
     42 H42       -13.8885    1.3587   51.8154 H       1  ZINC000956479608    0.0600
     43 H43       -15.4848    0.5684   51.8970 H       1  ZINC000956479608    0.0700
     44 H44       -15.1483    1.5568   54.0618 H       1  ZINC000956479608    0.0700
     45 H45       -14.8112   -0.1812   54.2755 H       1  ZINC000956479608    0.0700
     46 H46       -12.7639    2.0410   53.8580 H       1  ZINC000956479608    0.0700
     47 H47       -13.0338    1.1136   55.3501 H       1  ZINC000956479608    0.0700
     48 H48       -10.4819    2.3347   52.6485 H       1  ZINC000956479608    0.0900
     49 H49        -9.0394    2.4922   53.6837 H       1  ZINC000956479608    0.0700
     50 H50        -8.9329    4.1809   51.9107 H       1  ZINC000956479608    0.0900
     51 H51        -9.1760    2.9321   50.6650 H       1  ZINC000956479608    0.0900
     52 H52        -4.5203    3.4266   57.7069 H       1  ZINC000956479608    0.2000
@<TRIPOS>BOND
     1     1     2    1
     2     1    29    1
     3     1    30    1
     4     1    31    1
     5     2    28    1
     6     2     3    2
     7     3     4    1
     8     3    26    1
     9     4     5    2
    10     4     6   am
    11     6     7    1
    12     6    32    1
    13     7    25    1
    14     7     8    1
    15     7     9    1
    16     8    33    1
    17     8    34    1
    18     8    35    1
    19     9    10    1
    20     9    36    1
    21     9    37    1
    22    10    11    1
    23    10    38    1
    24    10    39    1
    25    11    12   am
    26    11    24    1
    27    12    13    2
    28    12    14    1
    29    14    15    1
    30    14    22    1
    31    14    16    1
    32    16    17    1
    33    16    22    1
    34    16    18    1
    35    18    19    1
    36    18    40    1
    37    18    41    1
    38    19    20    1
    39    19    42    1
    40    19    43    1
    41    20    21    1
    42    20    44    1
    43    20    45    1
    44    21    22    1
    45    21    46    1
    46    21    47    1
    47    22    23    1
    48    24    25    1
    49    24    48    1
    50    24    49    1
    51    25    50    1
    52    25    51    1
    53    26    27    1
    54    27    28    2
    55    28    52    1
@<TRIPOS>SUBSTRUCTURE
     1 ZINC000956479608        1 TEMP              0 ****  ****    0 ROOT


##########                                Name:    ZINC001002468398
##########                DOCK_Rotatable_Bonds:                   7
##########                         Heavy_Atoms:                  24
##########                    Molecular_Weight:             341.358
##########                DOCK_Rotatable_Bonds:                   7
##########                       Formal_Charge:           0.0100001
##########                     HBond_Acceptors:                   8
##########                        HBond_Donors:                   0
##########                         Heavy_Atoms:                  24
##########                          Grid_Score:          -27.036707
##########                     Grid_vdw_energy:          -26.612368
##########                      Grid_es_energy:           -0.424339
##########           Internal_energy_repulsive:           15.555412

@<TRIPOS>MOLECULE
ZINC001002468398
 45 47 1 0 0
SMALL
USER_CHARGES


@<TRIPOS>ATOM
      1 C1         -7.7333    0.0867   51.8172 C.3     1  ZINC001002468398   -0.1400
      2 C2         -7.6117    1.4962   52.3999 C.3     1  ZINC001002468398   -0.0500
      3 C3         -7.9985    2.5080   51.3521 C.2     1  ZINC001002468398    0.0500
      4 C4         -7.1496    3.2261   50.5674 C.2     1  ZINC001002468398   -0.0800
      5 C5         -5.6770    3.1610   50.5818 C.2     1  ZINC001002468398    0.6000
      6 O6         -5.1100    2.1434   50.2327 O.2     1  ZINC001002468398   -0.5300
      7 N7         -4.9590    4.2292   50.9818 N.am    1  ZINC001002468398   -0.6000
      8 C8         -5.6422    5.4550   51.4023 C.3     1  ZINC001002468398    0.0900
      9 C9         -3.4956    4.1645   50.9960 C.3     1  ZINC001002468398    0.1000
     10 C10        -3.0335    3.3366   52.1968 C.3     1  ZINC001002468398    0.1300
     11 H11        -3.3168    2.2932   52.0587 H       1  ZINC001002468398    0.0800
     12 C12        -3.6708    3.8867   53.4902 C.3     1  ZINC001002468398   -0.1300
     13 C13        -2.5244    3.7523   54.5270 C.3     1  ZINC001002468398   -0.1300
     14 C14        -1.2802    4.0584   53.6564 C.3     1  ZINC001002468398    0.1000
     15 N15        -1.5747    3.4430   52.3459 N.am    1  ZINC001002468398   -0.6100
     16 C16        -0.6583    3.0480   51.4400 C.2     1  ZINC001002468398    0.5600
     17 O17        -1.0158    2.5527   50.3921 O.2     1  ZINC001002468398   -0.5100
     18 C18         0.8105    3.2220   51.7288 C.3     1  ZINC001002468398   -0.2000
     19 H19         1.0554    3.9630   52.4896 H       1  ZINC001002468398    0.1500
     20 C20         1.7843    3.0613   50.5597 C.3     1  ZINC001002468398   -0.1500
     21 C21         1.6999    1.9801   51.6401 C.3     1  ZINC001002468398    0.2300
     22 F22         2.7655    1.8829   52.5413 F       1  ZINC001002468398   -0.1500
     23 F23         1.0874    0.7701   51.2966 F       1  ZINC001002468398   -0.1400
     24 N24        -7.9162    4.0152   49.7665 N.2     1  ZINC001002468398   -0.4600
     25 C25        -9.1659    3.7936   50.0446 C.2     1  ZINC001002468398    0.1700
     26 O26        -9.2460    2.8682   51.0112 O.3     1  ZINC001002468398   -0.2000
     27 H27        -8.7624   -0.0896   51.5044 H       1  ZINC001002468398    0.0600
     28 H28        -7.0705   -0.0093   50.9573 H       1  ZINC001002468398    0.0600
     29 H29        -7.4535   -0.6451   52.5751 H       1  ZINC001002468398    0.0700
     30 H30        -8.2744    1.5923   53.2599 H       1  ZINC001002468398    0.1200
     31 H31        -6.5826    1.6725   52.7127 H       1  ZINC001002468398    0.0900
     32 H32        -6.2428    5.2505   52.2887 H       1  ZINC001002468398    0.0700
     33 H33        -4.9029    6.2220   51.6335 H       1  ZINC001002468398    0.0700
     34 H34        -6.2891    5.8048   50.5978 H       1  ZINC001002468398    0.0700
     35 H35        -3.1435    3.6979   50.0759 H       1  ZINC001002468398    0.0900
     36 H36        -3.0880    5.1726   51.0713 H       1  ZINC001002468398    0.0900
     37 H37        -3.9572    4.9310   53.3651 H       1  ZINC001002468398    0.1000
     38 H38        -4.5294    3.2829   53.7841 H       1  ZINC001002468398    0.0800
     39 H39        -2.6322    4.4859   55.3259 H       1  ZINC001002468398    0.0900
     40 H40        -2.4794    2.7409   54.9308 H       1  ZINC001002468398    0.0800
     41 H41        -1.1472    5.1350   53.5499 H       1  ZINC001002468398    0.0800
     42 H42        -0.3901    3.6068   54.0946 H       1  ZINC001002468398    0.0800
     43 H43         1.3626    2.8298   49.5816 H       1  ZINC001002468398    0.1300
     44 H44         2.6701    3.6964   50.5516 H       1  ZINC001002468398    0.1400
     45 H45       -10.0073    4.2755   49.5690 H       1  ZINC001002468398    0.2600
@<TRIPOS>BOND
     1     1     2    1
     2     1    27    1
     3     1    28    1
     4     1    29    1
     5     2     3    1
     6     2    30    1
     7     2    31    1
     8     3    26    1
     9     3     4    2
    10     4     5    1
    11     4    24    1
    12     5     6    2
    13     5     7   am
    14     7     8    1
    15     7     9    1
    16     8    32    1
    17     8    33    1
    18     8    34    1
    19     9    10    1
    20     9    35    1
    21     9    36    1
    22    10    11    1
    23    10    15    1
    24    10    12    1
    25    12    13    1
    26    12    37    1
    27    12    38    1
    28    13    14    1
    29    13    39    1
    30    13    40    1
    31    14    15    1
    32    14    41    1
    33    14    42    1
    34    15    16   am
    35    16    17    2
    36    16    18    1
    37    18    19    1
    38    18    21    1
    39    18    20    1
    40    20    21    1
    41    20    43    1
    42    20    44    1
    43    21    22    1
    44    21    23    1
    45    24    25    2
    46    25    26    1
    47    25    45    1
@<TRIPOS>SUBSTRUCTURE
     1 ZINC001002468398        1 TEMP              0 ****  ****    0 ROOT


##########                                Name:    ZINC000002873519
##########                DOCK_Rotatable_Bonds:                   5
##########                         Heavy_Atoms:                  25
##########                    Molecular_Weight:             375.207
##########                DOCK_Rotatable_Bonds:                   5
##########                       Formal_Charge:               -0.02
##########                     HBond_Acceptors:                   6
##########                        HBond_Donors:                   0
##########                         Heavy_Atoms:                  25
##########                          Grid_Score:          -27.029762
##########                     Grid_vdw_energy:          -26.702587
##########                      Grid_es_energy:           -0.327174
##########           Internal_energy_repulsive:            7.204834

@<TRIPOS>MOLECULE
ZINC000002873519
 37 39 1 0 0
SMALL
USER_CHARGES


@<TRIPOS>ATOM
      1 C1        -16.2118   -2.5475   58.0022 C.3     1  ZINC000002873519   -0.1500
      2 C2        -15.2345   -3.6912   57.9116 C.2     1  ZINC000002873519    0.4500
      3 O3        -15.6351   -4.8142   57.7163 O.2     1  ZINC000002873519   -0.4800
      4 O4        -13.9183   -3.4620   58.0478 O.3     1  ZINC000002873519   -0.2900
      5 C5        -13.2530   -3.0199   56.9505 C.ar    1  ZINC000002873519    0.1200
      6 C6        -13.1580   -3.8208   55.8248 C.ar    1  ZINC000002873519   -0.1100
      7 C7        -12.4810   -3.3703   54.7072 C.ar    1  ZINC000002873519   -0.0800
      8 C8        -11.8911   -2.1151   54.7008 C.ar    1  ZINC000002873519   -0.0400
      9 Cl9       -11.0451   -1.5656   53.2880 Cl      1  ZINC000002873519   -0.0500
     10 C10       -11.9735   -1.3019   55.8105 C.ar    1  ZINC000002873519   -0.0800
     11 C11       -12.6615   -1.7433   56.9491 C.ar    1  ZINC000002873519   -0.0700
     12 C12       -12.7548   -0.8867   58.1320 C.2     1  ZINC000002873519    0.0400
     13 C13       -11.7981   -0.9732   59.1244 C.2     1  ZINC000002873519   -0.1900
     14 C14       -11.7265   -0.2061   60.3800 C.2     1  ZINC000002873519   -0.2000
     15 C15       -10.6214   -0.6330   61.0267 C.2     1  ZINC000002873519    0.1200
     16 C16       -10.1727   -0.1211   62.3369 C.ar    1  ZINC000002873519   -0.0400
     17 C17       -11.0257    0.6695   63.1105 C.ar    1  ZINC000002873519   -0.0800
     18 C18       -10.6005    1.1446   64.3332 C.ar    1  ZINC000002873519   -0.1100
     19 C19        -9.3307    0.8398   64.7945 C.ar    1  ZINC000002873519   -0.0200
     20 Cl20       -8.8030    1.4419   66.3348 Cl      1  ZINC000002873519   -0.0600
     21 C21        -8.4801    0.0564   64.0322 C.ar    1  ZINC000002873519   -0.1100
     22 C22        -8.8955   -0.4301   62.8105 C.ar    1  ZINC000002873519   -0.0800
     23 O23        -9.9804   -1.5875   60.3229 O.3     1  ZINC000002873519   -0.2600
     24 C24       -10.6194   -1.8593   59.1708 C.2     1  ZINC000002873519    0.5200
     25 O25       -10.2858   -2.6710   58.3279 O.2     1  ZINC000002873519   -0.4200
     26 H26       -16.5266   -2.4199   59.0379 H       1  ZINC000002873519    0.1100
     27 H27       -15.7338   -1.6326   57.6522 H       1  ZINC000002873519    0.1000
     28 H28       -17.0818   -2.7631   57.3819 H       1  ZINC000002873519    0.1100
     29 H29       -13.6139   -4.7999   55.8202 H       1  ZINC000002873519    0.1500
     30 H30       -12.4106   -4.0003   53.8329 H       1  ZINC000002873519    0.1500
     31 H31       -11.5123   -0.3254   55.8014 H       1  ZINC000002873519    0.1500
     32 H32       -13.5717   -0.1869   58.2290 H       1  ZINC000002873519    0.1500
     33 H33       -12.4208    0.5495   60.7165 H       1  ZINC000002873519    0.1700
     34 H34       -12.0159    0.9085   62.7515 H       1  ZINC000002873519    0.1400
     35 H35       -11.2591    1.7560   64.9324 H       1  ZINC000002873519    0.1400
     36 H36        -7.4910   -0.1774   64.3973 H       1  ZINC000002873519    0.1400
     37 H37        -8.2313   -1.0409   62.2171 H       1  ZINC000002873519    0.1400
@<TRIPOS>BOND
     1     1     2    1
     2     1    26    1
     3     1    27    1
     4     1    28    1
     5     2     3    2
     6     2     4    1
     7     4     5    1
     8     5    11   ar
     9     5     6   ar
    10     6     7   ar
    11     6    29    1
    12     7     8   ar
    13     7    30    1
    14     8     9    1
    15     8    10   ar
    16    10    11   ar
    17    10    31    1
    18    11    12    1
    19    12    13    2
    20    12    32    1
    21    13    24    1
    22    13    14    1
    23    14    15    2
    24    14    33    1
    25    15    16    1
    26    15    23    1
    27    16    22   ar
    28    16    17   ar
    29    17    18   ar
    30    17    34    1
    31    18    19   ar
    32    18    35    1
    33    19    20    1
    34    19    21   ar
    35    21    22   ar
    36    21    36    1
    37    22    37    1
    38    23    24    1
    39    24    25    2
@<TRIPOS>SUBSTRUCTURE
     1 ZINC000002873519        1 TEMP              0 ****  ****    0 ROOT


##########                                Name:    ZINC001018118384
##########                DOCK_Rotatable_Bonds:                   5
##########                         Heavy_Atoms:                  25
##########                    Molecular_Weight:             347.374
##########                DOCK_Rotatable_Bonds:                   5
##########                       Formal_Charge:           0.0299997
##########                     HBond_Acceptors:                   9
##########                        HBond_Donors:                   2
##########                         Heavy_Atoms:                  25
##########                          Grid_Score:          -27.018278
##########                     Grid_vdw_energy:          -26.185217
##########                      Grid_es_energy:           -0.833062
##########           Internal_energy_repulsive:           97.235161

@<TRIPOS>MOLECULE
ZINC001018118384
 46 48 1 0 0
SMALL
USER_CHARGES


@<TRIPOS>ATOM
      1 C1         -7.8995    0.8152   52.1027 C.3     1  ZINC001018118384   -0.0700
      2 C2         -9.0074    0.8551   53.1236 C.2     1  ZINC001018118384    0.2200
      3 N3        -10.1676    0.2774   53.0029 N.2     1  ZINC001018118384   -0.4600
      4 C4        -10.9022    0.5309   54.1161 C.2     1  ZINC001018118384   -0.0700
      5 C5        -12.2727    0.0600   54.3810 C.2     1  ZINC001018118384    0.6100
      6 O6        -13.2047    0.8397   54.3273 O.2     1  ZINC001018118384   -0.5400
      7 N7        -12.4939   -1.2347   54.6829 N.am    1  ZINC001018118384   -0.5900
      8 C8        -11.3777   -2.1873   54.7575 C.3     1  ZINC001018118384    0.0700
      9 C9        -11.4236   -2.8952   56.1152 C.3     1  ZINC001018118384    0.1300
     10 H10       -10.6596   -3.6721   56.1463 H       1  ZINC001018118384    0.1100
     11 N11       -11.1756   -1.9226   57.1823 N.am    1  ZINC001018118384   -0.7000
     12 C12       -10.4941   -2.2913   58.2851 C.2     1  ZINC001018118384    0.6000
     13 O13       -10.0868   -3.4306   58.3950 O.2     1  ZINC001018118384   -0.4900
     14 C14       -10.2417   -1.3068   59.3639 C.2     1  ZINC001018118384    0.0300
     15 C15       -10.7559   -0.0470   59.4456 C.2     1  ZINC001018118384   -0.2300
     16 C16       -10.2106    0.4700   60.6544 C.2     1  ZINC001018118384    0.4800
     17 O17       -10.3998    1.5753   61.1343 O.2     1  ZINC001018118384   -0.5200
     18 N18        -9.4422   -0.5161   61.1593 N.am    1  ZINC001018118384   -0.4500
     19 C19        -8.6823   -0.4211   62.4082 C.3     1  ZINC001018118384    0.1100
     20 O20        -9.4693   -1.4917   60.4452 O.3     1  ZINC001018118384    0.0000
     21 C21       -12.8035   -3.5275   56.3100 C.3     1  ZINC001018118384   -0.1300
     22 C22       -13.8738   -2.4337   56.2992 C.3     1  ZINC001018118384   -0.1300
     23 C23       -13.8551   -1.7193   54.9496 C.3     1  ZINC001018118384    0.1400
     24 H24       -14.1496   -2.4150   54.1637 H       1  ZINC001018118384    0.0700
     25 C25       -14.8281   -0.5389   54.9805 C.3     1  ZINC001018118384   -0.1400
     26 C26       -10.1397    1.3008   54.9451 C.2     1  ZINC001018118384    0.0400
     27 N27        -8.9541    1.4948   54.3208 N.pl3   1  ZINC001018118384   -0.5600
     28 H28        -7.2592   -0.0457   52.2948 H       1  ZINC001018118384    0.0900
     29 H29        -8.3285    0.7332   51.1040 H       1  ZINC001018118384    0.1000
     30 H30        -7.3096    1.7292   52.1709 H       1  ZINC001018118384    0.0800
     31 H31       -11.4710   -2.9228   53.9585 H       1  ZINC001018118384    0.0800
     32 H32       -10.4335   -1.6523   54.6559 H       1  ZINC001018118384    0.1500
     33 H33       -11.5018   -1.0133   57.0952 H       1  ZINC001018118384    0.4100
     34 H34       -11.4226    0.4451   58.7530 H       1  ZINC001018118384    0.1900
     35 H35        -9.3023   -0.7616   63.2375 H       1  ZINC001018118384    0.0800
     36 H36        -7.7916   -1.0459   62.3400 H       1  ZINC001018118384    0.0900
     37 H37        -8.3875    0.6147   62.5762 H       1  ZINC001018118384    0.1100
     38 H38       -12.9970   -4.2329   55.5020 H       1  ZINC001018118384    0.0900
     39 H39       -12.8307   -4.0528   57.2647 H       1  ZINC001018118384    0.0800
     40 H40       -14.8540   -2.8822   56.4614 H       1  ZINC001018118384    0.0800
     41 H41       -13.6669   -1.7143   57.0915 H       1  ZINC001018118384    0.0600
     42 H42       -14.5406    0.1480   55.7765 H       1  ZINC001018118384    0.0700
     43 H43       -14.7984   -0.0185   54.0232 H       1  ZINC001018118384    0.0800
     44 H44       -15.8381   -0.9052   55.1638 H       1  ZINC001018118384    0.0400
     45 H45       -10.4254    1.6791   55.9154 H       1  ZINC001018118384    0.1900
     46 H46        -8.2038    2.0047   54.6641 H       1  ZINC001018118384    0.4300
@<TRIPOS>BOND
     1     1     2    1
     2     1    28    1
     3     1    29    1
     4     1    30    1
     5     2    27    1
     6     2     3    2
     7     3     4    1
     8     4     5    1
     9     4    26    2
    10     5     6    2
    11     5     7   am
    12     7    23    1
    13     7     8    1
    14     8     9    1
    15     8    31    1
    16     8    32    1
    17     9    10    1
    18     9    11    1
    19     9    21    1
    20    11    12   am
    21    11    33    1
    22    12    13    2
    23    12    14    1
    24    14    20    1
    25    14    15    2
    26    15    16    1
    27    15    34    1
    28    16    17    2
    29    16    18   am
    30    18    19    1
    31    18    20    1
    32    19    35    1
    33    19    36    1
    34    19    37    1
    35    21    22    1
    36    21    38    1
    37    21    39    1
    38    22    23    1
    39    22    40    1
    40    22    41    1
    41    23    24    1
    42    23    25    1
    43    25    42    1
    44    25    43    1
    45    25    44    1
    46    26    27    1
    47    26    45    1
    48    27    46    1
@<TRIPOS>SUBSTRUCTURE
     1 ZINC001018118384        1 TEMP              0 ****  ****    0 ROOT


##########                                Name:    ZINC000279331220
##########                DOCK_Rotatable_Bonds:                   9
##########                         Heavy_Atoms:                  24
##########                    Molecular_Weight:             328.411
##########                DOCK_Rotatable_Bonds:                   9
##########                       Formal_Charge:          -0.0100001
##########                     HBond_Acceptors:                   5
##########                        HBond_Donors:                   0
##########                         Heavy_Atoms:                  24
##########                          Grid_Score:          -26.959068
##########                     Grid_vdw_energy:          -27.339994
##########                      Grid_es_energy:            0.380926
##########           Internal_energy_repulsive:           18.580688

@<TRIPOS>MOLECULE
ZINC000279331220
 48 49 1 0 0
SMALL
USER_CHARGES


@<TRIPOS>ATOM
      1 C1         -9.1754    2.4068   57.0834 C.3     1  ZINC000279331220   -0.1500
      2 C2         -8.5620    1.7069   55.8691 C.3     1  ZINC000279331220    0.0500
      3 O3         -9.0306    2.3316   54.6723 O.3     1  ZINC000279331220   -0.3000
      4 C4         -8.5501    1.8492   53.4951 C.ar    1  ZINC000279331220    0.1000
      5 C5         -7.6903    2.6189   52.7287 C.ar    1  ZINC000279331220   -0.1700
      6 C6         -7.2024    2.1266   51.5321 C.ar    1  ZINC000279331220   -0.1200
      7 C7         -7.5707    0.8673   51.0978 C.ar    1  ZINC000279331220   -0.1200
      8 C8         -8.4290    0.0940   51.8578 C.ar    1  ZINC000279331220   -0.1700
      9 C9         -8.9165    0.5786   53.0605 C.ar    1  ZINC000279331220    0.1000
     10 O10        -9.7606   -0.1806   53.8091 O.3     1  ZINC000279331220   -0.3000
     11 C11       -11.1594   -0.0408   53.5524 C.3     1  ZINC000279331220    0.0600
     12 C12       -11.7879   -1.4253   53.3833 C.3     1  ZINC000279331220   -0.1100
     13 C13       -11.4443   -2.2931   54.5955 C.3     1  ZINC000279331220   -0.1300
     14 C14       -12.5640   -2.2172   55.6013 C.2     1  ZINC000279331220    0.5200
     15 O15       -13.5655   -1.5824   55.3470 O.2     1  ZINC000279331220   -0.5200
     16 N16       -12.4524   -2.8547   56.7834 N.am    1  ZINC000279331220   -0.5700
     17 C17       -11.2417   -3.6201   57.0914 C.3     1  ZINC000279331220    0.0800
     18 C18       -13.4888   -2.7858   57.7132 C.ar    1  ZINC000279331220    0.3400
     19 N19       -13.5448   -1.7691   58.5586 N.ar    1  ZINC000279331220   -0.4800
     20 C20       -14.5083   -1.6657   59.4539 C.ar    1  ZINC000279331220    0.1100
     21 C21       -15.5000   -2.6226   59.5404 C.ar    1  ZINC000279331220   -0.1600
     22 C22       -15.4775   -3.7052   58.6715 C.ar    1  ZINC000279331220   -0.0700
     23 C23       -14.4574   -3.7829   57.7399 C.ar    1  ZINC000279331220   -0.1200
     24 C24       -14.3907   -4.9386   56.7751 C.3     1  ZINC000279331220   -0.1100
     25 H25        -8.8180    1.9303   57.9963 H       1  ZINC000279331220    0.0800
     26 H26        -8.8833    3.4570   57.0835 H       1  ZINC000279331220    0.0700
     27 H27       -10.2617    2.3318   57.0358 H       1  ZINC000279331220    0.0700
     28 H28        -7.4757    1.7819   55.9167 H       1  ZINC000279331220    0.0600
     29 H29        -8.8541    0.6567   55.8690 H       1  ZINC000279331220    0.0600
     30 H30        -7.4015    3.6035   53.0655 H       1  ZINC000279331220    0.1300
     31 H31        -6.5321    2.7276   50.9355 H       1  ZINC000279331220    0.1300
     32 H32        -7.1877    0.4865   50.1624 H       1  ZINC000279331220    0.1300
     33 H33        -8.7157   -0.8895   51.5158 H       1  ZINC000279331220    0.1300
     34 H34       -11.6326    0.4734   54.3889 H       1  ZINC000279331220    0.0600
     35 H35       -11.3053    0.5383   52.6405 H       1  ZINC000279331220    0.0600
     36 H36       -12.8704   -1.3256   53.3029 H       1  ZINC000279331220    0.0800
     37 H37       -11.3981   -1.8933   52.4793 H       1  ZINC000279331220    0.0800
     38 H38       -11.3119   -3.3269   54.2765 H       1  ZINC000279331220    0.1000
     39 H39       -10.5219   -1.9324   55.0507 H       1  ZINC000279331220    0.1000
     40 H40       -10.4817   -2.9510   57.4947 H       1  ZINC000279331220    0.0700
     41 H41       -11.4757   -4.3896   57.8271 H       1  ZINC000279331220    0.0800
     42 H42       -10.8671   -4.0891   56.1816 H       1  ZINC000279331220    0.0800
     43 H43       -14.5214   -0.8221   60.1280 H       1  ZINC000279331220    0.1600
     44 H44       -16.2847   -2.5300   60.2766 H       1  ZINC000279331220    0.1400
     45 H45       -16.2415   -4.4671   58.7187 H       1  ZINC000279331220    0.1400
     46 H46       -14.8696   -4.6571   55.8372 H       1  ZINC000279331220    0.0800
     47 H47       -13.3482   -5.1958   56.5878 H       1  ZINC000279331220    0.0700
     48 H48       -14.9062   -5.7988   57.2023 H       1  ZINC000279331220    0.0700
@<TRIPOS>BOND
     1     1     2    1
     2     1    25    1
     3     1    26    1
     4     1    27    1
     5     2     3    1
     6     2    28    1
     7     2    29    1
     8     3     4    1
     9     4     9   ar
    10     4     5   ar
    11     5     6   ar
    12     5    30    1
    13     6     7   ar
    14     6    31    1
    15     7     8   ar
    16     7    32    1
    17     8     9   ar
    18     8    33    1
    19     9    10    1
    20    10    11    1
    21    11    12    1
    22    11    34    1
    23    11    35    1
    24    12    13    1
    25    12    36    1
    26    12    37    1
    27    13    14    1
    28    13    38    1
    29    13    39    1
    30    14    15    2
    31    14    16   am
    32    16    17    1
    33    16    18    1
    34    17    40    1
    35    17    41    1
    36    17    42    1
    37    18    23   ar
    38    18    19   ar
    39    19    20   ar
    40    20    21   ar
    41    20    43    1
    42    21    22   ar
    43    21    44    1
    44    22    23   ar
    45    22    45    1
    46    23    24    1
    47    24    46    1
    48    24    47    1
    49    24    48    1
@<TRIPOS>SUBSTRUCTURE
     1 ZINC000279331220        1 TEMP              0 ****  ****    0 ROOT


##########                                Name:    ZINC000435292384
##########                DOCK_Rotatable_Bonds:                   6
##########                         Heavy_Atoms:                  22
##########                    Molecular_Weight:             326.503
##########                DOCK_Rotatable_Bonds:                   6
##########                       Formal_Charge:         -0.00999993
##########                     HBond_Acceptors:                   5
##########                        HBond_Donors:                   0
##########                         Heavy_Atoms:                  22
##########                          Grid_Score:          -26.939035
##########                     Grid_vdw_energy:          -26.928257
##########                      Grid_es_energy:           -0.010778
##########           Internal_energy_repulsive:           25.399490

@<TRIPOS>MOLECULE
ZINC000435292384
 52 53 1 0 0
SMALL
USER_CHARGES


@<TRIPOS>ATOM
      1 C1         -3.0692    2.4637   50.3568 C.3     1  ZINC000435292384   -0.1500
      2 C2         -4.5134    2.7915   49.9728 C.3     1  ZINC000435292384   -0.1200
      3 C3         -5.4689    2.1220   50.9627 C.3     1  ZINC000435292384   -0.1400
      4 C4         -6.9134    2.3639   50.5202 C.3     1  ZINC000435292384    0.1600
      5 H5         -7.0585    1.9615   49.5177 H       1  ZINC000435292384    0.0900
      6 C6         -7.1997    3.8668   50.5129 C.3     1  ZINC000435292384   -0.1700
      7 N7         -7.8274    1.6972   51.4511 N.am    1  ZINC000435292384   -0.6100
      8 C8         -8.6795    2.3977   52.4193 C.3     1  ZINC000435292384    0.1200
      9 C9         -9.7480    1.3678   52.8485 C.3     1  ZINC000435292384   -0.1300
     10 H10       -10.6413    1.4516   52.2296 H       1  ZINC000435292384    0.1100
     11 C11       -10.0901    1.5222   54.3081 C.2     1  ZINC000435292384    0.5200
     12 O12        -9.3430    2.1301   55.0450 O.2     1  ZINC000435292384   -0.5200
     13 N13       -11.2262    0.9846   54.7944 N.am    1  ZINC000435292384   -0.6000
     14 C14       -12.1136    0.2507   53.8709 C.3     1  ZINC000435292384    0.1000
     15 C15       -12.6630   -1.0428   54.4993 C.3     1  ZINC000435292384   -0.1300
     16 C16       -11.5807   -1.7350   55.2907 C.3     1  ZINC000435292384   -0.1100
     17 C17       -11.6368   -1.2662   56.7414 C.3     1  ZINC000435292384   -0.1200
     18 C18       -10.9038   -0.0181   57.0037 C.3     1  ZINC000435292384   -0.0700
     19 H19        -9.8614   -0.1436   56.7107 H       1  ZINC000435292384    0.0900
     20 S20       -10.9875    0.3665   58.7745 S.3     1  ZINC000435292384   -0.2500
     21 C21        -9.4590   -0.3638   59.4233 C.3     1  ZINC000435292384   -0.1200
     22 C22       -11.5226    1.1454   56.2003 C.3     1  ZINC000435292384    0.1400
     23 C23        -9.0184    0.0295   52.5888 C.3     1  ZINC000435292384   -0.1400
     24 C24        -7.9974    0.3659   51.5243 C.2     1  ZINC000435292384    0.5200
     25 O25        -7.4121   -0.4477   50.8414 O.2     1  ZINC000435292384   -0.5200
     26 H26        -2.3884    2.9406   49.6516 H       1  ZINC000435292384    0.0500
     27 H27        -2.8678    2.8328   51.3624 H       1  ZINC000435292384    0.0500
     28 H28        -2.9222    1.3839   50.3299 H       1  ZINC000435292384    0.0500
     29 H29        -4.6604    3.8712   49.9996 H       1  ZINC000435292384    0.0600
     30 H30        -4.7148    2.4223   48.9671 H       1  ZINC000435292384    0.0600
     31 H31        -5.2718    1.0504   50.9897 H       1  ZINC000435292384    0.0800
     32 H32        -5.3176    2.5444   51.9560 H       1  ZINC000435292384    0.0800
     33 H33        -7.0545    4.2692   51.5154 H       1  ZINC000435292384    0.0700
     34 H34        -6.5196    4.3628   49.8203 H       1  ZINC000435292384    0.0700
     35 H35        -8.2288    4.0391   50.1977 H       1  ZINC000435292384    0.0600
     36 H36        -8.0911    2.7123   53.2812 H       1  ZINC000435292384    0.0900
     37 H37        -9.1535    3.2598   51.9502 H       1  ZINC000435292384    0.0800
     38 H38       -12.9498    0.8942   53.5974 H       1  ZINC000435292384    0.0700
     39 H39       -11.5550   -0.0030   52.9700 H       1  ZINC000435292384    0.0900
     40 H40       -13.4944   -0.7988   55.1606 H       1  ZINC000435292384    0.0700
     41 H41       -13.0145   -1.7072   53.7098 H       1  ZINC000435292384    0.0800
     42 H42       -11.7342   -2.8134   55.2508 H       1  ZINC000435292384    0.0700
     43 H43       -10.6069   -1.4899   54.8667 H       1  ZINC000435292384    0.0600
     44 H44       -12.6810   -1.1187   57.0174 H       1  ZINC000435292384    0.0800
     45 H45       -11.2226   -2.0505   57.3749 H       1  ZINC000435292384    0.0600
     46 H46        -9.4568   -1.4359   59.2272 H       1  ZINC000435292384    0.0800
     47 H47        -8.6003    0.0967   58.9348 H       1  ZINC000435292384    0.0800
     48 H48        -9.4014   -0.1909   60.4981 H       1  ZINC000435292384    0.1000
     49 H49       -11.1070    2.0900   56.5508 H       1  ZINC000435292384    0.0900
     50 H50       -12.6034    1.1500   56.3422 H       1  ZINC000435292384    0.0900
     51 H51        -8.5272   -0.3197   53.4971 H       1  ZINC000435292384    0.1100
     52 H52        -9.7175   -0.7208   52.2195 H       1  ZINC000435292384    0.1100
@<TRIPOS>BOND
     1     1     2    1
     2     1    26    1
     3     1    27    1
     4     1    28    1
     5     2     3    1
     6     2    29    1
     7     2    30    1
     8     3     4    1
     9     3    31    1
    10     3    32    1
    11     4     5    1
    12     4     6    1
    13     4     7    1
    14     6    33    1
    15     6    34    1
    16     6    35    1
    17     7    24   am
    18     7     8    1
    19     8     9    1
    20     8    36    1
    21     8    37    1
    22     9    10    1
    23     9    11    1
    24     9    23    1
    25    11    12    2
    26    11    13   am
    27    13    22    1
    28    13    14    1
    29    14    15    1
    30    14    38    1
    31    14    39    1
    32    15    16    1
    33    15    40    1
    34    15    41    1
    35    16    17    1
    36    16    42    1
    37    16    43    1
    38    17    18    1
    39    17    44    1
    40    17    45    1
    41    18    19    1
    42    18    20    1
    43    18    22    1
    44    20    21    1
    45    21    46    1
    46    21    47    1
    47    21    48    1
    48    22    49    1
    49    22    50    1
    50    23    24    1
    51    23    51    1
    52    23    52    1
    53    24    25    2
@<TRIPOS>SUBSTRUCTURE
     1 ZINC000435292384        1 TEMP              0 ****  ****    0 ROOT


##########                                Name:    ZINC000518937710
##########                DOCK_Rotatable_Bonds:                   6
##########                         Heavy_Atoms:                  25
##########                    Molecular_Weight:             397.421
##########                DOCK_Rotatable_Bonds:                   6
##########                       Formal_Charge:          -0.0199997
##########                     HBond_Acceptors:                  11
##########                        HBond_Donors:                   0
##########                         Heavy_Atoms:                  25
##########                          Grid_Score:          -26.933340
##########                     Grid_vdw_energy:          -26.607162
##########                      Grid_es_energy:           -0.326177
##########           Internal_energy_repulsive:           18.460535

@<TRIPOS>MOLECULE
ZINC000518937710
 42 44 1 0 0
SMALL
USER_CHARGES


@<TRIPOS>ATOM
      1 C1        -13.8362   -0.5000   57.6043 C.3     1  ZINC000518937710   -0.1900
      2 C2        -13.4301   -1.3512   58.8090 C.3     1  ZINC000518937710    0.1700
      3 H3        -13.3504   -0.7168   59.6918 H       1  ZINC000518937710    0.1100
      4 C4        -14.4872   -2.4306   59.0503 C.3     1  ZINC000518937710   -0.6600
      5 S5        -15.6684   -1.8517   60.2994 S.o2    1  ZINC000518937710    2.4000
      6 C6        -14.6671   -1.8962   61.8112 C.3     1  ZINC000518937710   -0.6600
      7 O7        -16.0007   -0.4995   60.0160 O.2     1  ZINC000518937710   -0.9200
      8 O8        -16.7094   -2.8118   60.4174 O.2     1  ZINC000518937710   -0.9300
      9 N9        -12.1361   -1.9853   58.5451 N.am    1  ZINC000518937710   -0.9600
     10 C10       -11.8457   -2.5327   57.2176 C.3     1  ZINC000518937710    0.0800
     11 C11       -11.2281   -3.9308   57.1496 C.3     1  ZINC000518937710   -0.1800
     12 C12       -12.6877   -3.7186   56.7429 C.3     1  ZINC000518937710   -0.1800
     13 S13       -11.0016   -2.0835   59.7475 S.o2    1  ZINC000518937710    2.6900
     14 O14       -11.6438   -2.6983   60.8560 O.2     1  ZINC000518937710   -0.9400
     15 O15        -9.8234   -2.6025   59.1461 O.2     1  ZINC000518937710   -0.9400
     16 C16       -10.6228   -0.4355   60.2430 C.ar    1  ZINC000518937710   -0.6400
     17 C17       -11.0932    0.0485   61.4494 C.ar    1  ZINC000518937710   -0.0300
     18 C18       -10.7979    1.3410   61.8414 C.ar    1  ZINC000518937710   -0.1300
     19 C19       -10.0306    2.1546   61.0289 C.ar    1  ZINC000518937710   -0.0300
     20 C20        -9.5559    1.6762   59.8185 C.ar    1  ZINC000518937710    0.0200
     21 C21        -9.8489    0.3725   59.4259 C.ar    1  ZINC000518937710    0.1900
     22 O22        -9.2738    0.1435   58.2094 O.3     1  ZINC000518937710   -0.2800
     23 C23        -8.9716    1.4463   57.6757 C.3     1  ZINC000518937710    0.5700
     24 F24        -7.7929    1.4079   56.9232 F       1  ZINC000518937710   -0.1200
     25 F25       -10.0347    1.9176   56.8978 F       1  ZINC000518937710   -0.1400
     26 O26        -8.7933    2.2625   58.8500 O.3     1  ZINC000518937710   -0.2900
     27 H27       -13.8803   -1.1278   56.7142 H       1  ZINC000518937710    0.1000
     28 H28       -14.8156   -0.0575   57.7857 H       1  ZINC000518937710    0.0800
     29 H29       -13.1019    0.2915   57.4546 H       1  ZINC000518937710    0.0700
     30 H30       -15.0150   -2.6369   58.1193 H       1  ZINC000518937710    0.1600
     31 H31       -14.0028   -3.3412   59.4029 H       1  ZINC000518937710    0.1400
     32 H32       -13.8568   -1.1715   61.7318 H       1  ZINC000518937710    0.1300
     33 H33       -15.2929   -1.6487   62.6689 H       1  ZINC000518937710    0.1300
     34 H34       -14.2502   -2.8948   61.9417 H       1  ZINC000518937710    0.1300
     35 H35       -11.5316   -1.8064   56.4680 H       1  ZINC000518937710    0.1500
     36 H36       -10.5073   -4.1245   56.3551 H       1  ZINC000518937710    0.1100
     37 H37       -11.0378   -4.4434   58.0926 H       1  ZINC000518937710    0.1000
     38 H38       -13.4577   -4.0916   57.4182 H       1  ZINC000518937710    0.1000
     39 H39       -12.9272   -3.7728   55.6808 H       1  ZINC000518937710    0.1000
     40 H40       -11.6929   -0.5843   62.0869 H       1  ZINC000518937710    0.1600
     41 H41       -11.1678    1.7158   62.7843 H       1  ZINC000518937710    0.1600
     42 H42        -9.8016    3.1639   61.3378 H       1  ZINC000518937710    0.1500
@<TRIPOS>BOND
     1     1     2    1
     2     1    27    1
     3     1    28    1
     4     1    29    1
     5     2     3    1
     6     2     4    1
     7     2     9    1
     8     4     5    1
     9     4    30    1
    10     4    31    1
    11     5     6    1
    12     5     7    2
    13     5     8    2
    14     6    32    1
    15     6    33    1
    16     6    34    1
    17     9    10    1
    18     9    13   am
    19    10    12    1
    20    10    11    1
    21    10    35    1
    22    11    12    1
    23    11    36    1
    24    11    37    1
    25    12    38    1
    26    12    39    1
    27    13    14    2
    28    13    15    2
    29    13    16    1
    30    16    21   ar
    31    16    17   ar
    32    17    18   ar
    33    17    40    1
    34    18    19   ar
    35    18    41    1
    36    19    20   ar
    37    19    42    1
    38    20    26    1
    39    20    21   ar
    40    21    22    1
    41    22    23    1
    42    23    24    1
    43    23    25    1
    44    23    26    1
@<TRIPOS>SUBSTRUCTURE
     1 ZINC000518937710        1 TEMP              0 ****  ****    0 ROOT


##########                                Name:    ZINC001456096501
##########                DOCK_Rotatable_Bonds:                   7
##########                         Heavy_Atoms:                  24
##########                    Molecular_Weight:             333.431
##########                DOCK_Rotatable_Bonds:                   7
##########                       Formal_Charge:          -0.0200003
##########                     HBond_Acceptors:                   6
##########                        HBond_Donors:                   0
##########                         Heavy_Atoms:                  24
##########                          Grid_Score:          -26.903254
##########                     Grid_vdw_energy:          -26.740555
##########                      Grid_es_energy:           -0.162700
##########           Internal_energy_repulsive:          127.303978

@<TRIPOS>MOLECULE
ZINC001456096501
 51 52 1 0 0
SMALL
USER_CHARGES


@<TRIPOS>ATOM
      1 C1        -13.9742    0.8007   51.3213 C.3     1  ZINC001456096501    0.0400
      2 O2        -12.6413    0.2973   51.4311 O.3     1  ZINC001456096501   -0.2900
      3 C3        -12.3212   -0.3508   52.5763 C.ar    1  ZINC001456096501    0.3700
      4 N4        -13.0244   -1.4050   52.9532 N.ar    1  ZINC001456096501   -0.5400
      5 C5        -12.7470   -2.0659   54.0606 C.ar    1  ZINC001456096501    0.1600
      6 C6        -11.7017   -1.6820   54.8810 C.ar    1  ZINC001456096501   -0.2200
      7 C7        -10.9323   -0.5851   54.5347 C.ar    1  ZINC001456096501   -0.0200
      8 C8        -11.2417    0.0972   53.3528 C.ar    1  ZINC001456096501   -0.2000
      9 C9        -10.4537    1.2727   52.9359 C.2     1  ZINC001456096501    0.5900
     10 O10       -10.8542    2.3930   53.1865 O.2     1  ZINC001456096501   -0.5100
     11 N11        -9.2899    1.1047   52.2772 N.am    1  ZINC001456096501   -0.6200
     12 C12        -8.6913   -0.1874   51.9113 C.3     1  ZINC001456096501    0.1000
     13 C13        -7.3565    0.1121   51.1971 C.3     1  ZINC001456096501   -0.1200
     14 C14        -7.0042    1.5363   51.7016 C.3     1  ZINC001456096501   -0.1200
     15 H15        -6.5202    1.4965   52.6775 H       1  ZINC001456096501    0.0900
     16 C16        -6.1286    2.2762   50.6882 C.3     1  ZINC001456096501    0.1200
     17 N17        -5.1128    3.0569   51.3987 N.am    1  ZINC001456096501   -0.6200
     18 C18        -5.5175    4.1470   52.2899 C.3     1  ZINC001456096501    0.0600
     19 C19        -3.8059    2.7722   51.2326 C.2     1  ZINC001456096501    0.5200
     20 O20        -3.4709    1.8699   50.4949 O.2     1  ZINC001456096501   -0.5300
     21 C21        -2.7611    3.5754   51.9635 C.3     1  ZINC001456096501   -0.0800
     22 C22        -2.6688    4.9729   51.3475 C.3     1  ZINC001456096501   -0.1300
     23 C23        -3.1480    3.6930   53.4391 C.3     1  ZINC001456096501   -0.1500
     24 C24        -1.4054    2.8758   51.8459 C.3     1  ZINC001456096501   -0.1700
     25 C25        -8.4095    2.1861   51.7988 C.3     1  ZINC001456096501    0.1200
     26 H26       -14.6819   -0.0248   51.3984 H       1  ZINC001456096501    0.0600
     27 H27       -14.1602    1.5147   52.1237 H       1  ZINC001456096501    0.0600
     28 H28       -14.0974    1.2961   50.3583 H       1  ZINC001456096501    0.1000
     29 H29       -13.3471   -2.9218   54.3318 H       1  ZINC001456096501    0.1700
     30 H30       -11.4878   -2.2336   55.7846 H       1  ZINC001456096501    0.1500
     31 H31       -10.1111   -0.2659   55.1593 H       1  ZINC001456096501    0.1500
     32 H32        -8.5072   -0.7781   52.8086 H       1  ZINC001456096501    0.0700
     33 H33        -9.3581   -0.7279   51.2395 H       1  ZINC001456096501    0.0700
     34 H34        -6.5903   -0.6034   51.4958 H       1  ZINC001456096501    0.0900
     35 H35        -7.4887    0.1079   50.1151 H       1  ZINC001456096501    0.0800
     36 H36        -5.6402    1.5538   50.0344 H       1  ZINC001456096501    0.0800
     37 H37        -6.7493    2.9448   50.0916 H       1  ZINC001456096501    0.0900
     38 H38        -5.6111    3.7684   53.3077 H       1  ZINC001456096501    0.0600
     39 H39        -4.7660    4.9360   52.2634 H       1  ZINC001456096501    0.0900
     40 H40        -6.4766    4.5475   51.9617 H       1  ZINC001456096501    0.0700
     41 H41        -3.6345    5.4713   51.4312 H       1  ZINC001456096501    0.0600
     42 H42        -1.9131    5.5538   51.8761 H       1  ZINC001456096501    0.0600
     43 H43        -2.3932    4.8890   50.2963 H       1  ZINC001456096501    0.0600
     44 H44        -3.3423    2.6998   53.8440 H       1  ZINC001456096501    0.0700
     45 H45        -2.3322    4.1579   53.9927 H       1  ZINC001456096501    0.0700
     46 H46        -4.0451    4.3050   53.5318 H       1  ZINC001456096501    0.0600
     47 H47        -1.1298    2.7919   50.7946 H       1  ZINC001456096501    0.0600
     48 H48        -0.6497    3.4567   52.3745 H       1  ZINC001456096501    0.0700
     49 H49        -1.4712    1.8801   52.2848 H       1  ZINC001456096501    0.0800
     50 H50        -8.7324    2.5400   50.8197 H       1  ZINC001456096501    0.0800
     51 H51        -8.3992    3.0072   52.5155 H       1  ZINC001456096501    0.0700
@<TRIPOS>BOND
     1     1     2    1
     2     1    26    1
     3     1    27    1
     4     1    28    1
     5     2     3    1
     6     3     8   ar
     7     3     4   ar
     8     4     5   ar
     9     5     6   ar
    10     5    29    1
    11     6     7   ar
    12     6    30    1
    13     7     8   ar
    14     7    31    1
    15     8     9    1
    16     9    10    2
    17     9    11   am
    18    11    25    1
    19    11    12    1
    20    12    13    1
    21    12    32    1
    22    12    33    1
    23    13    14    1
    24    13    34    1
    25    13    35    1
    26    14    15    1
    27    14    16    1
    28    14    25    1
    29    16    17    1
    30    16    36    1
    31    16    37    1
    32    17    18    1
    33    17    19   am
    34    18    38    1
    35    18    39    1
    36    18    40    1
    37    19    20    2
    38    19    21    1
    39    21    22    1
    40    21    23    1
    41    21    24    1
    42    22    41    1
    43    22    42    1
    44    22    43    1
    45    23    44    1
    46    23    45    1
    47    23    46    1
    48    24    47    1
    49    24    48    1
    50    24    49    1
    51    25    50    1
    52    25    51    1
@<TRIPOS>SUBSTRUCTURE
     1 ZINC001456096501        1 TEMP              0 ****  ****    0 ROOT


##########                                Name:    ZINC000680410869
##########                DOCK_Rotatable_Bonds:                   6
##########                         Heavy_Atoms:                  24
##########                    Molecular_Weight:             335.354
##########                DOCK_Rotatable_Bonds:                   6
##########                       Formal_Charge:        -1.04308e-07
##########                     HBond_Acceptors:                   7
##########                        HBond_Donors:                   0
##########                         Heavy_Atoms:                  24
##########                          Grid_Score:          -26.898367
##########                     Grid_vdw_energy:          -27.130735
##########                      Grid_es_energy:            0.232369
##########           Internal_energy_repulsive:            9.252213

@<TRIPOS>MOLECULE
ZINC000680410869
 43 45 1 0 0
SMALL
USER_CHARGES


@<TRIPOS>ATOM
      1 O1         -3.5537    2.4940   48.9926 O.2     1  ZINC000680410869   -0.5200
      2 C2         -3.1654    2.9244   50.0613 C.2     1  ZINC000680410869    0.6100
      3 C3         -1.7255    3.1715   50.2787 C.2     1  ZINC000680410869    0.0100
      4 N4         -0.7915    2.2590   50.4592 N.2     1  ZINC000680410869   -0.2500
      5 N5          0.3516    2.8235   50.6175 N.pl3   1  ZINC000680410869   -0.3500
      6 C6          1.6131    2.1130   50.8410 C.3     1  ZINC000680410869    0.5000
      7 F7          2.3063    2.7142   51.8971 F       1  ZINC000680410869   -0.1600
      8 F8          1.3459    0.7771   51.1591 F       1  ZINC000680410869   -0.1700
      9 C9          0.2232    4.1659   50.5477 C.2     1  ZINC000680410869    0.0100
     10 C10        -1.0854    4.4326   50.3270 C.2     1  ZINC000680410869   -0.1700
     11 N11        -4.0494    3.1813   51.0456 N.am    1  ZINC000680410869   -0.6000
     12 C12        -3.6040    3.7082   52.3454 C.3     1  ZINC000680410869    0.0800
     13 C13        -4.2115    2.8399   53.4530 C.3     1  ZINC000680410869    0.0500
     14 O14        -5.6245    2.7465   53.2564 O.3     1  ZINC000680410869   -0.3700
     15 C15        -6.0044    2.1125   52.0327 C.3     1  ZINC000680410869    0.0800
     16 H16        -5.5715    1.1129   51.9908 H       1  ZINC000680410869    0.0600
     17 C17        -7.5294    2.0124   51.9610 C.3     1  ZINC000680410869   -0.1000
     18 C18        -8.0074    0.8625   52.8501 C.3     1  ZINC000680410869   -0.0800
     19 C19        -9.4444    0.5424   52.5280 C.ar    1  ZINC000680410869   -0.0800
     20 C20       -10.3563    1.5653   52.3464 C.ar    1  ZINC000680410869   -0.1200
     21 C21       -11.6744    1.2717   52.0510 C.ar    1  ZINC000680410869   -0.1200
     22 C22       -12.0805   -0.0447   51.9367 C.ar    1  ZINC000680410869   -0.1300
     23 C23       -11.1683   -1.0675   52.1175 C.ar    1  ZINC000680410869   -0.1200
     24 C24        -9.8493   -0.7739   52.4086 C.ar    1  ZINC000680410869   -0.1200
     25 C25        -5.4893    2.9489   50.8503 C.3     1  ZINC000680410869    0.0600
     26 H26         2.2199    2.1567   49.9366 H       1  ZINC000680410869    0.1700
     27 H27         1.0173    4.8914   50.6453 H       1  ZINC000680410869    0.1900
     28 H28        -1.5452    5.4036   50.2169 H       1  ZINC000680410869    0.1700
     29 H29        -2.5163    3.6698   52.4037 H       1  ZINC000680410869    0.1000
     30 H30        -3.9421    4.7382   52.4592 H       1  ZINC000680410869    0.0800
     31 H31        -3.7721    1.8431   53.4163 H       1  ZINC000680410869    0.0600
     32 H32        -4.0081    3.2928   54.4234 H       1  ZINC000680410869    0.1100
     33 H33        -7.9716    2.9468   52.3066 H       1  ZINC000680410869    0.0800
     34 H34        -7.8333    1.8257   50.9310 H       1  ZINC000680410869    0.0800
     35 H35        -7.3899   -0.0173   52.6694 H       1  ZINC000680410869    0.0700
     36 H36        -7.9260    1.1548   53.8970 H       1  ZINC000680410869    0.0800
     37 H37       -10.0391    2.5938   52.4356 H       1  ZINC000680410869    0.1200
     38 H38       -12.3871    2.0708   51.9097 H       1  ZINC000680410869    0.1200
     39 H39       -13.1105   -0.2742   51.7066 H       1  ZINC000680410869    0.1200
     40 H40       -11.4856   -2.0961   52.0285 H       1  ZINC000680410869    0.1200
     41 H41        -9.1366   -1.5729   52.5499 H       1  ZINC000680410869    0.1200
     42 H42        -6.0190    3.9008   50.8158 H       1  ZINC000680410869    0.0800
     43 H43        -5.6489    2.4053   49.9190 H       1  ZINC000680410869    0.1300
@<TRIPOS>BOND
     1     1     2    2
     2     2     3    1
     3     2    11   am
     4     3    10    1
     5     3     4    2
     6     4     5    1
     7     5     6    1
     8     5     9    1
     9     6     7    1
    10     6     8    1
    11     6    26    1
    12     9    10    2
    13     9    27    1
    14    10    28    1
    15    11    25    1
    16    11    12    1
    17    12    13    1
    18    12    29    1
    19    12    30    1
    20    13    14    1
    21    13    31    1
    22    13    32    1
    23    14    15    1
    24    15    16    1
    25    15    17    1
    26    15    25    1
    27    17    18    1
    28    17    33    1
    29    17    34    1
    30    18    19    1
    31    18    35    1
    32    18    36    1
    33    19    24   ar
    34    19    20   ar
    35    20    21   ar
    36    20    37    1
    37    21    22   ar
    38    21    38    1
    39    22    23   ar
    40    22    39    1
    41    23    24   ar
    42    23    40    1
    43    24    41    1
    44    25    42    1
    45    25    43    1
@<TRIPOS>SUBSTRUCTURE
     1 ZINC000680410869        1 TEMP              0 ****  ****    0 ROOT


##########                                Name:    ZINC000330515179
##########                DOCK_Rotatable_Bonds:                   4
##########                         Heavy_Atoms:                  21
##########                    Molecular_Weight:             378.287
##########                DOCK_Rotatable_Bonds:                   4
##########                       Formal_Charge:           0.0200002
##########                     HBond_Acceptors:                   6
##########                        HBond_Donors:                   0
##########                         Heavy_Atoms:                  21
##########                          Grid_Score:          -26.853249
##########                     Grid_vdw_energy:          -26.931511
##########                      Grid_es_energy:            0.078263
##########           Internal_energy_repulsive:            5.416056

@<TRIPOS>MOLECULE
ZINC000330515179
 41 42 1 0 0
SMALL
USER_CHARGES


@<TRIPOS>ATOM
      1 C1        -11.2117   -2.1521   53.5680 C.3     1  ZINC000330515179    0.0300
      2 O2        -10.6390   -0.8428   53.5715 O.3     1  ZINC000330515179   -0.3800
      3 C3         -9.6534   -0.6369   52.5575 C.3     1  ZINC000330515179    0.0700
      4 C4         -9.1552    0.8085   52.6166 C.3     1  ZINC000330515179    0.0800
      5 H5         -9.9461    1.4801   52.2825 H       1  ZINC000330515179    0.0800
      6 C6         -7.9316    0.9660   51.7066 C.3     1  ZINC000330515179    0.0900
      7 N7         -7.3615    2.3052   51.9231 N.am    1  ZINC000330515179   -1.0000
      8 S8         -7.0293    3.3068   50.6469 S.o2    1  ZINC000330515179    2.6900
      9 O9         -7.2570    2.5450   49.4692 O.2     1  ZINC000330515179   -0.9400
     10 O10        -7.6905    4.5350   50.9180 O.2     1  ZINC000330515179   -0.9500
     11 C11        -5.3020    3.6516   50.6902 C.ar    1  ZINC000330515179   -0.6700
     12 C12        -4.4110    2.7971   50.0680 C.ar    1  ZINC000330515179   -0.0100
     13 C13        -3.0558    3.0674   50.1014 C.ar    1  ZINC000330515179   -0.1100
     14 C14        -2.5913    4.1930   50.7576 C.ar    1  ZINC000330515179   -0.0400
     15 Br15       -0.7375    4.5637   50.8031 Br      1  ZINC000330515179   -0.0300
     16 C16        -3.4831    5.0477   51.3800 C.ar    1  ZINC000330515179   -0.1100
     17 C17        -4.8386    4.7795   51.3416 C.ar    1  ZINC000330515179   -0.0100
     18 C18        -7.0947    2.7278   53.3072 C.3     1  ZINC000330515179    0.1000
     19 C19        -8.3591    2.4845   54.1391 C.3     1  ZINC000330515179    0.1000
     20 C20        -8.0533    2.7315   55.6178 C.3     1  ZINC000330515179   -0.1400
     21 C21        -9.4644    3.4375   53.6797 C.3     1  ZINC000330515179   -0.1800
     22 O22        -8.7889    1.1329   53.9598 O.3     1  ZINC000330515179   -0.3500
     23 H23       -11.9499   -2.2278   54.3664 H       1  ZINC000330515179    0.0900
     24 H24       -11.6947   -2.3348   52.6081 H       1  ZINC000330515179    0.0400
     25 H25       -10.4274   -2.8921   53.7269 H       1  ZINC000330515179    0.0400
     26 H26        -8.8169   -1.3164   52.7206 H       1  ZINC000330515179    0.0600
     27 H27       -10.0929   -0.8301   51.5790 H       1  ZINC000330515179    0.0700
     28 H28        -7.1899    0.2067   51.9541 H       1  ZINC000330515179    0.0900
     29 H29        -8.2330    0.8594   50.6644 H       1  ZINC000330515179    0.1000
     30 H30        -4.7738    1.9180   49.5561 H       1  ZINC000330515179    0.1500
     31 H31        -2.3598    2.3996   49.6157 H       1  ZINC000330515179    0.1500
     32 H32        -3.1210    5.9267   51.8923 H       1  ZINC000330515179    0.1500
     33 H33        -5.5350    5.4467   51.8275 H       1  ZINC000330515179    0.1500
     34 H34        -6.2687    2.1459   53.7159 H       1  ZINC000330515179    0.0900
     35 H35        -6.8419    3.7879   53.3250 H       1  ZINC000330515179    0.1000
     36 H36        -7.7222    3.7611   55.7532 H       1  ZINC000330515179    0.0800
     37 H37        -8.9527    2.5584   56.2087 H       1  ZINC000330515179    0.0700
     38 H38        -7.2670    2.0511   55.9448 H       1  ZINC000330515179    0.0700
     39 H39        -9.6830    3.2598   52.6268 H       1  ZINC000330515179    0.0600
     40 H40       -10.3630    3.2639   54.2717 H       1  ZINC000330515179    0.0700
     41 H41        -9.1346    4.4678   53.8135 H       1  ZINC000330515179    0.0700
@<TRIPOS>BOND
     1     1     2    1
     2     1    23    1
     3     1    24    1
     4     1    25    1
     5     2     3    1
     6     3     4    1
     7     3    26    1
     8     3    27    1
     9     4     5    1
    10     4    22    1
    11     4     6    1
    12     6     7    1
    13     6    28    1
    14     6    29    1
    15     7     8   am
    16     7    18    1
    17     8     9    2
    18     8    10    2
    19     8    11    1
    20    11    17   ar
    21    11    12   ar
    22    12    13   ar
    23    12    30    1
    24    13    14   ar
    25    13    31    1
    26    14    15    1
    27    14    16   ar
    28    16    17   ar
    29    16    32    1
    30    17    33    1
    31    18    19    1
    32    18    34    1
    33    18    35    1
    34    19    20    1
    35    19    21    1
    36    19    22    1
    37    20    36    1
    38    20    37    1
    39    20    38    1
    40    21    39    1
    41    21    40    1
    42    21    41    1
@<TRIPOS>SUBSTRUCTURE
     1 ZINC000330515179        1 TEMP              0 ****  ****    0 ROOT


##########                                Name:    ZINC000444542200
##########                DOCK_Rotatable_Bonds:                   8
##########                         Heavy_Atoms:                  28
##########                    Molecular_Weight:             404.337
##########                DOCK_Rotatable_Bonds:                   8
##########                       Formal_Charge:           0.0200001
##########                     HBond_Acceptors:                  10
##########                        HBond_Donors:                   1
##########                         Heavy_Atoms:                  28
##########                          Grid_Score:          -26.820759
##########                     Grid_vdw_energy:          -25.620188
##########                      Grid_es_energy:           -1.200571
##########           Internal_energy_repulsive:           19.177494

@<TRIPOS>MOLECULE
ZINC000444542200
 45 46 1 0 0
SMALL
USER_CHARGES


@<TRIPOS>ATOM
      1 C1         -5.8726    5.2255   57.2594 C.3     1  ZINC000444542200    0.0300
      2 O2         -5.5225    4.3149   56.2152 O.3     1  ZINC000444542200   -0.3100
      3 C3         -6.4775    3.4325   55.8202 C.ar    1  ZINC000444542200    0.1800
      4 C4         -7.4610    3.0307   56.7112 C.ar    1  ZINC000444542200   -0.1700
      5 C5         -8.4367    2.1297   56.3074 C.ar    1  ZINC000444542200    0.2300
      6 N6         -9.4298    1.7242   57.2060 N.am    1  ZINC000444542200   -0.5800
      7 C7        -10.7681    2.3159   57.1346 C.3     1  ZINC000444542200    0.0700
      8 C8         -9.1551    0.7893   58.1372 C.2     1  ZINC000444542200    0.7100
      9 O9         -8.0445    0.2981   58.1963 O.2     1  ZINC000444542200   -0.5500
     10 N10       -10.1117    0.3988   59.0026 N.am    1  ZINC000444542200   -0.7300
     11 C11        -9.8126   -0.6161   60.0159 C.3     1  ZINC000444542200    0.1700
     12 H12        -8.7459   -0.8399   60.0023 H       1  ZINC000444542200    0.1500
     13 C13       -10.1996   -0.0967   61.3766 C.ar    1  ZINC000444542200   -0.1300
     14 C14       -11.4085    0.5499   61.5513 C.ar    1  ZINC000444542200   -0.0800
     15 C15       -11.7649    1.0271   62.7990 C.ar    1  ZINC000444542200   -0.0900
     16 C16       -10.9132    0.8583   63.8743 C.ar    1  ZINC000444542200   -0.1100
     17 C17        -9.7017    0.2112   63.7027 C.ar    1  ZINC000444542200    0.0800
     18 F18        -8.8686    0.0459   64.7533 F       1  ZINC000444542200   -0.1200
     19 C19        -9.3468   -0.2724   62.4526 C.ar    1  ZINC000444542200    0.1000
     20 F20        -8.1649   -0.9043   62.2826 F       1  ZINC000444542200   -0.1100
     21 C21       -10.6047   -1.8893   59.7117 C.3     1  ZINC000444542200    0.4400
     22 F22        -9.8103   -2.7655   58.9645 F       1  ZINC000444542200   -0.1600
     23 F23       -10.9764   -2.5050   60.9117 F       1  ZINC000444542200   -0.1700
     24 F24       -11.7518   -1.5615   58.9809 F       1  ZINC000444542200   -0.1800
     25 C25        -8.4270    1.6315   55.0119 C.ar    1  ZINC000444542200   -0.1900
     26 C26        -7.4430    2.0341   54.1220 C.ar    1  ZINC000444542200    0.1800
     27 O27        -7.4335    1.5464   52.8536 O.3     1  ZINC000444542200   -0.3100
     28 C28        -6.3934    2.0075   51.9890 C.3     1  ZINC000444542200    0.0300
     29 C29        -6.4716    2.9384   54.5244 C.ar    1  ZINC000444542200   -0.2900
     30 H30        -6.7198    5.8335   56.9422 H       1  ZINC000444542200    0.0600
     31 H31        -6.1421    4.6654   58.1547 H       1  ZINC000444542200    0.0600
     32 H32        -5.0227    5.8723   57.4775 H       1  ZINC000444542200    0.1000
     33 H33        -7.4676    3.4185   57.7191 H       1  ZINC000444542200    0.1300
     34 H34       -11.3910    1.7255   56.4626 H       1  ZINC000444542200    0.0700
     35 H35       -11.2144    2.3259   58.1290 H       1  ZINC000444542200    0.0700
     36 H36       -10.6945    3.3366   56.7592 H       1  ZINC000444542200    0.0900
     37 H37       -10.9981    0.7898   58.9547 H       1  ZINC000444542200    0.4100
     38 H38       -12.0753    0.6830   60.7123 H       1  ZINC000444542200    0.1400
     39 H39       -12.7099    1.5324   62.9335 H       1  ZINC000444542200    0.1500
     40 H40       -11.1925    1.2318   64.8484 H       1  ZINC000444542200    0.1500
     41 H41        -9.1857    0.9301   54.6973 H       1  ZINC000444542200    0.1400
     42 H42        -5.4246    1.7419   52.4123 H       1  ZINC000444542200    0.0600
     43 H43        -6.5019    1.5419   51.0095 H       1  ZINC000444542200    0.1000
     44 H44        -6.4601    3.0906   51.8859 H       1  ZINC000444542200    0.0600
     45 H45        -5.7053    3.2516   53.8308 H       1  ZINC000444542200    0.1400
@<TRIPOS>BOND
     1     1     2    1
     2     1    30    1
     3     1    31    1
     4     1    32    1
     5     2     3    1
     6     3    29   ar
     7     3     4   ar
     8     4     5   ar
     9     4    33    1
    10     5     6    1
    11     5    25   ar
    12     6     7    1
    13     6     8   am
    14     7    34    1
    15     7    35    1
    16     7    36    1
    17     8     9    2
    18     8    10   am
    19    10    11    1
    20    10    37    1
    21    11    12    1
    22    11    13    1
    23    11    21    1
    24    13    19   ar
    25    13    14   ar
    26    14    15   ar
    27    14    38    1
    28    15    16   ar
    29    15    39    1
    30    16    17   ar
    31    16    40    1
    32    17    18    1
    33    17    19   ar
    34    19    20    1
    35    21    22    1
    36    21    23    1
    37    21    24    1
    38    25    26   ar
    39    25    41    1
    40    26    27    1
    41    26    29   ar
    42    27    28    1
    43    28    42    1
    44    28    43    1
    45    28    44    1
    46    29    45    1
@<TRIPOS>SUBSTRUCTURE
     1 ZINC000444542200        1 TEMP              0 ****  ****    0 ROOT


##########                                Name:    ZINC000566738344
##########                DOCK_Rotatable_Bonds:                   5
##########                         Heavy_Atoms:                  23
##########                    Molecular_Weight:             352.478
##########                DOCK_Rotatable_Bonds:                   5
##########                       Formal_Charge:           0.0100005
##########                     HBond_Acceptors:                   7
##########                        HBond_Donors:                   0
##########                         Heavy_Atoms:                  23
##########                          Grid_Score:          -26.765064
##########                     Grid_vdw_energy:          -26.299099
##########                      Grid_es_energy:           -0.465965
##########           Internal_energy_repulsive:           17.715788

@<TRIPOS>MOLECULE
ZINC000566738344
 43 44 1 0 0
SMALL
USER_CHARGES


@<TRIPOS>ATOM
      1 C1         -6.0156    3.5278   54.0642 C.3     1  ZINC000566738344   -0.1300
      2 C2         -6.4906    2.7919   52.8378 C.ar    1  ZINC000566738344   -0.0100
      3 C3         -7.2704    1.6660   52.9692 C.ar    1  ZINC000566738344   -0.1000
      4 C4         -7.7093    0.9851   51.8363 C.ar    1  ZINC000566738344   -0.0500
      5 S5         -8.7073   -0.4567   52.0088 S.3     1  ZINC000566738344   -0.0300
      6 C6        -10.0661    0.1117   53.0678 C.3     1  ZINC000566738344   -0.1200
      7 H7         -9.6678    0.4266   54.0323 H       1  ZINC000566738344    0.1200
      8 C8        -10.7748    1.2912   52.3990 C.3     1  ZINC000566738344   -0.1300
      9 C9        -11.0476   -1.0133   53.2728 C.2     1  ZINC000566738344    0.5200
     10 O10       -11.0275   -1.9772   52.5371 O.2     1  ZINC000566738344   -0.5000
     11 N11       -11.9477   -0.9483   54.2738 N.am    1  ZINC000566738344   -0.6000
     12 C12       -11.9732    0.2168   55.1614 C.3     1  ZINC000566738344    0.0600
     13 C13       -12.9007   -2.0427   54.4743 C.3     1  ZINC000566738344    0.1500
     14 H14       -13.0326   -2.5893   53.5404 H       1  ZINC000566738344    0.1300
     15 C15       -12.3731   -2.9956   55.5613 C.3     1  ZINC000566738344   -0.1300
     16 C16       -13.5551   -3.9195   55.9530 C.3     1  ZINC000566738344   -0.5900
     17 S17       -14.9652   -2.7512   56.0319 S.o2    1  ZINC000566738344    2.4000
     18 O18       -16.0975   -3.3367   55.4040 O.2     1  ZINC000566738344   -0.9300
     19 O19       -15.0756   -2.2348   57.3511 O.2     1  ZINC000566738344   -0.9300
     20 C20       -14.2560   -1.4718   54.9365 C.3     1  ZINC000566738344   -0.6200
     21 C21        -7.3615    1.4415   50.5676 C.ar    1  ZINC000566738344   -0.1400
     22 C22        -6.5817    2.5670   50.4295 C.ar    1  ZINC000566738344   -0.0400
     23 C23        -6.1439    3.2559   51.5648 C.ar    1  ZINC000566738344   -0.0400
     24 C24        -5.3324    4.4275   51.4246 C.1     1  ZINC000566738344    0.2500
     25 N25        -4.6886    5.3569   51.3134 N.1     1  ZINC000566738344   -0.4100
     26 H26        -6.7493    4.2851   54.3403 H       1  ZINC000566738344    0.0800
     27 H27        -5.8941    2.8228   54.8865 H       1  ZINC000566738344    0.0800
     28 H28        -5.0601    4.0076   53.8526 H       1  ZINC000566738344    0.0700
     29 H29        -7.5421    1.3097   53.9518 H       1  ZINC000566738344    0.1400
     30 H30       -11.2490    0.9548   51.4770 H       1  ZINC000566738344    0.0800
     31 H31       -11.5331    1.6893   53.0733 H       1  ZINC000566738344    0.0800
     32 H32       -10.0473    2.0699   52.1702 H       1  ZINC000566738344    0.0900
     33 H33       -12.6458    0.9708   54.7523 H       1  ZINC000566738344    0.0700
     34 H34       -12.3238   -0.0857   56.1482 H       1  ZINC000566738344    0.0800
     35 H35       -10.9690    0.6325   55.2444 H       1  ZINC000566738344    0.0800
     36 H36       -11.5487   -3.5906   55.1682 H       1  ZINC000566738344    0.1100
     37 H37       -12.0418   -2.4251   56.4290 H       1  ZINC000566738344    0.0900
     38 H38       -13.7232   -4.6778   55.1884 H       1  ZINC000566738344    0.1400
     39 H39       -13.3800   -4.3807   56.9250 H       1  ZINC000566738344    0.1400
     40 H40       -14.1091   -0.5421   55.4862 H       1  ZINC000566738344    0.1400
     41 H41       -14.9064   -1.3060   54.0777 H       1  ZINC000566738344    0.1500
     42 H42        -7.7038    0.9114   49.6911 H       1  ZINC000566738344    0.1200
     43 H43        -6.3120    2.9203   49.4453 H       1  ZINC000566738344    0.1400
@<TRIPOS>BOND
     1     1     2    1
     2     1    26    1
     3     1    27    1
     4     1    28    1
     5     2    23   ar
     6     2     3   ar
     7     3     4   ar
     8     3    29    1
     9     4     5    1
    10     4    21   ar
    11     5     6    1
    12     6     7    1
    13     6     8    1
    14     6     9    1
    15     8    30    1
    16     8    31    1
    17     8    32    1
    18     9    10    2
    19     9    11   am
    20    11    12    1
    21    11    13    1
    22    12    33    1
    23    12    34    1
    24    12    35    1
    25    13    14    1
    26    13    20    1
    27    13    15    1
    28    15    16    1
    29    15    36    1
    30    15    37    1
    31    16    17    1
    32    16    38    1
    33    16    39    1
    34    17    18    2
    35    17    19    2
    36    17    20    1
    37    20    40    1
    38    20    41    1
    39    21    22   ar
    40    21    42    1
    41    22    23   ar
    42    22    43    1
    43    23    24    1
    44    24    25    3
@<TRIPOS>SUBSTRUCTURE
     1 ZINC000566738344        1 TEMP              0 ****  ****    0 ROOT


##########                                Name:    ZINC001193456967
##########                DOCK_Rotatable_Bonds:                   3
##########                         Heavy_Atoms:                  27
##########                    Molecular_Weight:             392.451
##########                DOCK_Rotatable_Bonds:                   3
##########                       Formal_Charge:           0.0300002
##########                     HBond_Acceptors:                   8
##########                        HBond_Donors:                   0
##########                         Heavy_Atoms:                  27
##########                          Grid_Score:          -26.688457
##########                     Grid_vdw_energy:          -27.255341
##########                      Grid_es_energy:            0.566883
##########           Internal_energy_repulsive:           37.339474

@<TRIPOS>MOLECULE
ZINC001193456967
 48 50 1 0 0
SMALL
USER_CHARGES


@<TRIPOS>ATOM
      1 C1         -2.1741    5.2974   51.5356 C.3     1  ZINC001193456967   -0.1400
      2 C2         -3.6093    4.8794   51.3446 C.ar    1  ZINC001193456967    0.0300
      3 C3         -4.6326    5.7263   51.7268 C.ar    1  ZINC001193456967   -0.1400
      4 C4         -5.9492    5.3426   51.5516 C.ar    1  ZINC001193456967    0.0300
      5 C5         -6.2422    4.1125   50.9939 C.ar    1  ZINC001193456967   -0.6900
      6 S6         -7.9202    3.6234   50.7711 S.o2    1  ZINC001193456967    2.7100
      7 O7         -8.7164    4.6351   51.3723 O.2     1  ZINC001193456967   -0.9300
      8 O8         -8.0489    3.2401   49.4088 O.2     1  ZINC001193456967   -0.9400
      9 N9         -8.1537    2.2504   51.6671 N.am    1  ZINC001193456967   -1.0000
     10 C10        -7.4268    0.9791   51.4967 C.3     1  ZINC001193456967    0.1100
     11 C11        -8.3750   -0.1005   52.0755 C.3     1  ZINC001193456967   -0.1200
     12 C12        -9.0002    0.6485   53.2819 C.3     1  ZINC001193456967   -0.0500
     13 H13        -8.3411    0.6013   54.1488 H       1  ZINC001193456967    0.1000
     14 C14       -10.3571    0.0837   53.6150 C.ar    1  ZINC001193456967   -0.0800
     15 C15       -11.1913   -0.3525   52.6024 C.ar    1  ZINC001193456967   -0.0800
     16 C16       -12.4358   -0.8705   52.9068 C.ar    1  ZINC001193456967   -0.1500
     17 C17       -12.8470   -0.9530   54.2263 C.ar    1  ZINC001193456967    0.1000
     18 F18       -14.0633   -1.4597   54.5249 F       1  ZINC001193456967   -0.1400
     19 C19       -12.0106   -0.5162   55.2395 C.ar    1  ZINC001193456967   -0.1500
     20 C20       -10.7646   -0.0030   54.9332 C.ar    1  ZINC001193456967   -0.0800
     21 C21        -9.1157    2.0994   52.7686 C.3     1  ZINC001193456967    0.1900
     22 C22        -8.7840    3.0783   53.8966 C.3     1  ZINC001193456967   -0.1800
     23 C23       -10.5326    2.3572   52.2518 C.3     1  ZINC001193456967   -0.1800
     24 C24        -5.2187    3.2658   50.6103 C.ar    1  ZINC001193456967    0.0400
     25 C25        -3.9024    3.6510   50.7820 C.ar    1  ZINC001193456967   -0.0600
     26 N26        -2.8066    2.7446   50.3714 N.pl3   1  ZINC001193456967    0.0200
     27 O27        -1.7924    3.2012   49.8747 O.2     1  ZINC001193456967   -0.1400
     28 O28        -2.9190    1.5422   50.5301 O.2     1  ZINC001193456967   -0.1500
     29 H29        -1.7978    5.7374   50.6121 H       1  ZINC001193456967    0.1100
     30 H30        -2.1134    6.0318   52.3388 H       1  ZINC001193456967    0.0900
     31 H31        -1.5730    4.4257   51.7941 H       1  ZINC001193456967    0.0800
     32 H32        -4.4036    6.6876   52.1626 H       1  ZINC001193456967    0.1600
     33 H33        -6.7488    6.0042   51.8509 H       1  ZINC001193456967    0.1600
     34 H34        -7.2363    0.7898   50.4403 H       1  ZINC001193456967    0.0900
     35 H35        -6.4904    0.9998   52.0541 H       1  ZINC001193456967    0.0700
     36 H36        -9.1393   -0.3790   51.3499 H       1  ZINC001193456967    0.0900
     37 H37        -7.8152   -0.9754   52.4062 H       1  ZINC001193456967    0.0900
     38 H38       -10.8703   -0.2880   51.5733 H       1  ZINC001193456967    0.1400
     39 H39       -13.0875   -1.2106   52.1155 H       1  ZINC001193456967    0.1400
     40 H40       -12.3305   -0.5798   56.2691 H       1  ZINC001193456967    0.1400
     41 H41       -10.1118    0.3375   55.7234 H       1  ZINC001193456967    0.1300
     42 H42        -7.7666    2.9000   54.2449 H       1  ZINC001193456967    0.0700
     43 H43        -8.8676    4.1003   53.5269 H       1  ZINC001193456967    0.0600
     44 H44        -9.4814    2.9321   54.7213 H       1  ZINC001193456967    0.0800
     45 H45       -11.2545    2.1003   53.0270 H       1  ZINC001193456967    0.0800
     46 H46       -10.6383    3.4103   51.9915 H       1  ZINC001193456967    0.0900
     47 H47       -10.7142    1.7446   51.3687 H       1  ZINC001193456967    0.0700
     48 H48        -5.4477    2.3048   50.1742 H       1  ZINC001193456967    0.1600
@<TRIPOS>BOND
     1     1     2    1
     2     1    29    1
     3     1    30    1
     4     1    31    1
     5     2    25   ar
     6     2     3   ar
     7     3     4   ar
     8     3    32    1
     9     4     5   ar
    10     4    33    1
    11     5     6    1
    12     5    24   ar
    13     6     7    2
    14     6     8    2
    15     6     9   am
    16     9    21    1
    17     9    10    1
    18    10    11    1
    19    10    34    1
    20    10    35    1
    21    11    12    1
    22    11    36    1
    23    11    37    1
    24    12    13    1
    25    12    14    1
    26    12    21    1
    27    14    20   ar
    28    14    15   ar
    29    15    16   ar
    30    15    38    1
    31    16    17   ar
    32    16    39    1
    33    17    18    1
    34    17    19   ar
    35    19    20   ar
    36    19    40    1
    37    20    41    1
    38    21    22    1
    39    21    23    1
    40    22    42    1
    41    22    43    1
    42    22    44    1
    43    23    45    1
    44    23    46    1
    45    23    47    1
    46    24    25   ar
    47    24    48    1
    48    25    26    1
    49    26    27    2
    50    26    28    2
@<TRIPOS>SUBSTRUCTURE
     1 ZINC001193456967        1 TEMP              0 ****  ****    0 ROOT


##########                                Name:    ZINC000130059363
##########                DOCK_Rotatable_Bonds:                   4
##########                         Heavy_Atoms:                  29
##########                    Molecular_Weight:             389.497
##########                DOCK_Rotatable_Bonds:                   4
##########                       Formal_Charge:          -0.0100003
##########                     HBond_Acceptors:                   5
##########                        HBond_Donors:                   0
##########                         Heavy_Atoms:                  29
##########                          Grid_Score:          -26.668026
##########                     Grid_vdw_energy:          -26.653831
##########                      Grid_es_energy:           -0.014195
##########           Internal_energy_repulsive:           22.204546

@<TRIPOS>MOLECULE
ZINC000130059363
 56 60 1 0 0
SMALL
USER_CHARGES


@<TRIPOS>ATOM
      1 C1        -11.1561   -1.7248   52.5137 C.3     1  ZINC000130059363   -0.1200
      2 C2        -10.7563   -0.3913   53.0906 C.ar    1  ZINC000130059363    0.1900
      3 N3         -9.5681    0.1038   52.8224 N.ar    1  ZINC000130059363   -0.4800
      4 C4         -9.1726    1.2748   53.3079 C.ar    1  ZINC000130059363    0.2000
      5 C5         -7.8224    1.7870   52.9737 C.ar    1  ZINC000130059363   -0.0600
      6 C6         -7.2963    1.5926   51.6971 C.ar    1  ZINC000130059363   -0.1000
      7 C7         -6.0390    2.0720   51.3917 C.ar    1  ZINC000130059363   -0.1200
      8 C8         -5.3005    2.7440   52.3493 C.ar    1  ZINC000130059363   -0.1000
      9 C9         -5.8169    2.9394   53.6176 C.ar    1  ZINC000130059363   -0.1300
     10 C10        -7.0757    2.4699   53.9329 C.ar    1  ZINC000130059363   -0.0700
     11 C11       -10.0114    2.0293   54.1279 C.ar    1  ZINC000130059363   -0.1800
     12 C12       -11.2678    1.5454   54.4343 C.ar    1  ZINC000130059363   -0.0400
     13 C13       -11.6539    0.3085   53.9001 C.ar    1  ZINC000130059363   -0.1900
     14 C14       -12.9877   -0.2520   54.1976 C.2     1  ZINC000130059363    0.5700
     15 O15       -13.8726   -0.1895   53.3663 O.2     1  ZINC000130059363   -0.5200
     16 N16       -13.2238   -0.8329   55.3906 N.am    1  ZINC000130059363   -0.6000
     17 C17       -14.5431   -1.4015   55.7018 C.3     1  ZINC000130059363    0.1000
     18 C18       -14.3538   -2.8624   56.1208 C.3     1  ZINC000130059363   -0.1500
     19 C19       -13.3476   -2.9469   57.2630 C.3     1  ZINC000130059363    0.1500
     20 H20       -13.2061   -3.9983   57.5135 H       1  ZINC000130059363    0.0700
     21 C21       -11.9963   -2.3724   56.8422 C.3     1  ZINC000130059363   -0.1100
     22 H22       -11.5730   -2.9666   56.0325 H       1  ZINC000130059363    0.1000
     23 C23       -11.0648   -2.4058   58.0642 C.3     1  ZINC000130059363   -0.1200
     24 C24       -11.5917   -1.4039   59.0947 C.3     1  ZINC000130059363   -0.1400
     25 C25       -13.0661   -1.5992   59.3008 C.2     1  ZINC000130059363    0.5200
     26 O26       -13.5763   -1.1170   60.2898 O.2     1  ZINC000130059363   -0.5400
     27 N27       -13.8388   -2.2612   58.4478 N.am    1  ZINC000130059363   -0.5700
     28 C28       -15.2750   -2.3340   58.7276 C.3     1  ZINC000130059363    0.0700
     29 C29       -15.8987   -3.7244   58.8636 C.3     1  ZINC000130059363   -0.1800
     30 C30       -15.7015   -2.8499   60.1034 C.3     1  ZINC000130059363   -0.1600
     31 C31       -12.1672   -0.9173   56.4064 C.3     1  ZINC000130059363    0.1100
     32 H32       -11.7220   -1.5683   51.5953 H       1  ZINC000130059363    0.0800
     33 H33       -10.2620   -2.3085   52.2945 H       1  ZINC000130059363    0.0800
     34 H34       -11.7733   -2.2619   53.2338 H       1  ZINC000130059363    0.1000
     35 H35        -7.8717    1.0675   50.9490 H       1  ZINC000130059363    0.1300
     36 H36        -5.6305    1.9221   50.4033 H       1  ZINC000130059363    0.1300
     37 H37        -4.3166    3.1172   52.1058 H       1  ZINC000130059363    0.1300
     38 H38        -5.2357    3.4644   54.3612 H       1  ZINC000130059363    0.1300
     39 H39        -7.4780    2.6231   54.9234 H       1  ZINC000130059363    0.1400
     40 H40        -9.6819    2.9806   54.5190 H       1  ZINC000130059363    0.1400
     41 H41       -11.9382    2.1082   55.0671 H       1  ZINC000130059363    0.1400
     42 H42       -15.0006   -0.8420   56.5178 H       1  ZINC000130059363    0.0700
     43 H43       -15.1812   -1.3524   54.8195 H       1  ZINC000130059363    0.0900
     44 H44       -15.3093   -3.2719   56.4487 H       1  ZINC000130059363    0.0900
     45 H45       -13.9867   -3.4382   55.2712 H       1  ZINC000130059363    0.0800
     46 H46       -11.0586   -3.4071   58.4948 H       1  ZINC000130059363    0.0800
     47 H47       -10.0545   -2.1276   57.7643 H       1  ZINC000130059363    0.0900
     48 H48       -11.0719   -1.5524   60.0412 H       1  ZINC000130059363    0.1000
     49 H49       -11.4079   -0.3901   58.7394 H       1  ZINC000130059363    0.1000
     50 H50       -15.8827   -1.5517   58.2729 H       1  ZINC000130059363    0.1100
     51 H51       -16.9170   -3.8571   58.4981 H       1  ZINC000130059363    0.1100
     52 H52       -15.2405   -4.5851   58.7448 H       1  ZINC000130059363    0.1000
     53 H53       -14.9135   -3.1352   60.8003 H       1  ZINC000130059363    0.1000
     54 H54       -16.5900   -2.4073   60.5536 H       1  ZINC000130059363    0.1000
     55 H55       -11.2296   -0.5493   55.9900 H       1  ZINC000130059363    0.1000
     56 H56       -12.4480   -0.3100   57.2669 H       1  ZINC000130059363    0.0700
@<TRIPOS>BOND
     1     1     2    1
     2     1    32    1
     3     1    33    1
     4     1    34    1
     5     2    13   ar
     6     2     3   ar
     7     3     4   ar
     8     4     5    1
     9     4    11   ar
    10     5    10   ar
    11     5     6   ar
    12     6     7   ar
    13     6    35    1
    14     7     8   ar
    15     7    36    1
    16     8     9   ar
    17     8    37    1
    18     9    10   ar
    19     9    38    1
    20    10    39    1
    21    11    12   ar
    22    11    40    1
    23    12    13   ar
    24    12    41    1
    25    13    14    1
    26    14    15    2
    27    14    16   am
    28    16    31    1
    29    16    17    1
    30    17    18    1
    31    17    42    1
    32    17    43    1
    33    18    19    1
    34    18    44    1
    35    18    45    1
    36    19    20    1
    37    19    27    1
    38    19    21    1
    39    21    22    1
    40    21    23    1
    41    21    31    1
    42    23    24    1
    43    23    46    1
    44    23    47    1
    45    24    25    1
    46    24    48    1
    47    24    49    1
    48    25    26    2
    49    25    27   am
    50    27    28    1
    51    28    30    1
    52    28    29    1
    53    28    50    1
    54    29    30    1
    55    29    51    1
    56    29    52    1
    57    30    53    1
    58    30    54    1
    59    31    55    1
    60    31    56    1
@<TRIPOS>SUBSTRUCTURE
     1 ZINC000130059363        1 TEMP              0 ****  ****    0 ROOT


##########                                Name:    ZINC000543020509
##########                DOCK_Rotatable_Bonds:                   5
##########                         Heavy_Atoms:                  26
##########                    Molecular_Weight:              366.81
##########                DOCK_Rotatable_Bonds:                   5
##########                       Formal_Charge:               -0.02
##########                     HBond_Acceptors:                   8
##########                        HBond_Donors:                   1
##########                         Heavy_Atoms:                  26
##########                          Grid_Score:          -26.658558
##########                     Grid_vdw_energy:          -26.356602
##########                      Grid_es_energy:           -0.301957
##########           Internal_energy_repulsive:           11.773863

@<TRIPOS>MOLECULE
ZINC000543020509
 41 43 1 0 0
SMALL
USER_CHARGES


@<TRIPOS>ATOM
      1 C1         -6.2046    2.6569   51.0278 C.3     1  ZINC000543020509    0.0800
      2 N2         -7.1157    1.5818   51.4285 N.pl3   1  ZINC000543020509   -0.6200
      3 C3         -6.6126    0.2145   51.5819 C.3     1  ZINC000543020509    0.0900
      4 C4         -8.4592    1.8595   51.6635 C.ar    1  ZINC000543020509    0.2500
      5 C5         -9.0278    3.0560   51.2300 C.ar    1  ZINC000543020509   -0.2200
      6 C6        -10.3658    3.2984   51.4804 C.ar    1  ZINC000543020509    0.1400
      7 N7        -11.1061    2.4177   52.1199 N.ar    1  ZINC000543020509   -0.5000
      8 C8        -10.6071    1.2643   52.5513 C.ar    1  ZINC000543020509    0.1100
      9 C9        -11.4834    0.3072   53.2657 C.2     1  ZINC000543020509    0.5900
     10 O10       -12.5844    0.6566   53.6434 O.2     1  ZINC000543020509   -0.5000
     11 N11       -11.0597   -0.9512   53.4968 N.am    1  ZINC000543020509   -0.6200
     12 C12       -11.8883   -1.8560   54.1703 C.2     1  ZINC000543020509    0.3200
     13 N13       -12.6603   -1.5772   55.1945 N.2     1  ZINC000543020509   -0.3100
     14 N14       -13.3245   -2.7506   55.5745 N.pl3   1  ZINC000543020509   -0.3300
     15 C15       -14.2378   -2.8749   56.6243 C.ar    1  ZINC000543020509    0.2200
     16 C16       -15.5954   -2.9749   56.3582 C.ar    1  ZINC000543020509   -0.1300
     17 C17       -16.4975   -3.0979   57.3971 C.ar    1  ZINC000543020509   -0.0500
     18 C18       -16.0554   -3.1221   58.7102 C.ar    1  ZINC000543020509   -0.0600
     19 Cl19      -17.2013   -3.2771   60.0051 Cl      1  ZINC000543020509   -0.0500
     20 C20       -14.7082   -3.0241   58.9929 C.ar    1  ZINC000543020509   -0.0400
     21 C21       -13.7853   -2.9048   57.9519 C.ar    1  ZINC000543020509   -0.0200
     22 C22       -12.3860   -2.8027   58.2383 C.1     1  ZINC000543020509    0.2500
     23 N23       -11.2759   -2.7217   58.4654 N.1     1  ZINC000543020509   -0.3800
     24 C24       -12.9239   -3.7463   54.7412 C.2     1  ZINC000543020509    0.0700
     25 C25       -12.0420   -3.2186   53.8629 C.2     1  ZINC000543020509   -0.2400
     26 C26        -9.2717    0.9450   52.3335 C.ar    1  ZINC000543020509   -0.1800
     27 H27        -6.1905    2.7348   49.9407 H       1  ZINC000543020509    0.0600
     28 H28        -6.5452    3.6000   51.4553 H       1  ZINC000543020509    0.0700
     29 H29        -5.2004    2.4357   51.3894 H       1  ZINC000543020509    0.0700
     30 H30        -5.5461    0.1924   51.3575 H       1  ZINC000543020509    0.0800
     31 H31        -6.7752   -0.1197   52.6066 H       1  ZINC000543020509    0.0600
     32 H32        -7.1420   -0.4466   50.8958 H       1  ZINC000543020509    0.0600
     33 H33        -8.4297    3.7859   50.7047 H       1  ZINC000543020509    0.1400
     34 H34       -10.8101    4.2244   51.1465 H       1  ZINC000543020509    0.1700
     35 H35       -10.1805   -1.2298   53.1964 H       1  ZINC000543020509    0.4300
     36 H36       -15.9476   -2.9564   55.3375 H       1  ZINC000543020509    0.1500
     37 H37       -17.5535   -3.1751   57.1846 H       1  ZINC000543020509    0.1500
     38 H38       -14.3679   -3.0435   60.0177 H       1  ZINC000543020509    0.1500
     39 H39       -13.2540   -4.7742   54.7725 H       1  ZINC000543020509    0.1900
     40 H40       -11.5394   -3.7516   53.0694 H       1  ZINC000543020509    0.1800
     41 H41        -8.8678    0.0068   52.6845 H       1  ZINC000543020509    0.1500
@<TRIPOS>BOND
     1     1     2    1
     2     1    27    1
     3     1    28    1
     4     1    29    1
     5     2     3    1
     6     2     4    1
     7     3    30    1
     8     3    31    1
     9     3    32    1
    10     4    26   ar
    11     4     5   ar
    12     5     6   ar
    13     5    33    1
    14     6     7   ar
    15     6    34    1
    16     7     8   ar
    17     8     9    1
    18     8    26   ar
    19     9    10    2
    20     9    11   am
    21    11    12    1
    22    11    35    1
    23    12    25    1
    24    12    13    2
    25    13    14    1
    26    14    15    1
    27    14    24    1
    28    15    21   ar
    29    15    16   ar
    30    16    17   ar
    31    16    36    1
    32    17    18   ar
    33    17    37    1
    34    18    19    1
    35    18    20   ar
    36    20    21   ar
    37    20    38    1
    38    21    22    1
    39    22    23    3
    40    24    25    2
    41    24    39    1
    42    25    40    1
    43    26    41    1
@<TRIPOS>SUBSTRUCTURE
     1 ZINC000543020509        1 TEMP              0 ****  ****    0 ROOT


##########                                Name:    ZINC000647468483
##########                DOCK_Rotatable_Bonds:                   5
##########                         Heavy_Atoms:                  24
##########                    Molecular_Weight:             341.373
##########                DOCK_Rotatable_Bonds:                   5
##########                       Formal_Charge:           0.0300004
##########                     HBond_Acceptors:                   6
##########                        HBond_Donors:                   2
##########                         Heavy_Atoms:                  24
##########                          Grid_Score:          -26.622200
##########                     Grid_vdw_energy:          -19.862114
##########                      Grid_es_energy:           -6.760086
##########           Internal_energy_repulsive:           20.078352

@<TRIPOS>MOLECULE
ZINC000647468483
 46 48 1 0 0
SMALL
USER_CHARGES


@<TRIPOS>ATOM
      1 O1        -16.0179    0.8780   64.2957 O.co2   1  ZINC000647468483   -0.6800
      2 C2        -15.8913    0.2757   63.2432 C.2     1  ZINC000647468483    0.5000
      3 O3        -16.8670   -0.2128   62.6992 O.co2   1  ZINC000647468483   -0.6900
      4 C4        -14.5298    0.1406   62.6114 C.3     1  ZINC000647468483   -0.1500
      5 H5        -13.7639   -0.0002   63.3741 H       1  ZINC000647468483    0.0800
      6 C6        -14.2081    1.3739   61.7314 C.3     1  ZINC000647468483   -0.1100
      7 C7        -13.1624    0.8562   60.7223 C.3     1  ZINC000647468483   -0.1400
      8 C8        -13.3558   -0.6676   60.6316 C.3     1  ZINC000647468483    0.0100
      9 H9        -12.4443   -1.1788   60.9414 H       1  ZINC000647468483    0.1400
     10 N10       -13.7040   -1.0497   59.2566 N.4     1  ZINC000647468483   -0.5000
     11 H11       -14.6383   -0.7322   59.0457 H       1  ZINC000647468483    0.4200
     12 H12       -13.0516   -0.6257   58.6143 H       1  ZINC000647468483    0.4300
     13 C13       -13.6419   -2.5114   59.1241 C.3     1  ZINC000647468483    0.0200
     14 H14       -13.0990   -2.9398   59.9665 H       1  ZINC000647468483    0.1500
     15 C15       -15.0639   -3.0959   59.0614 C.3     1  ZINC000647468483   -0.1400
     16 C16       -15.1866   -3.8122   57.7007 C.3     1  ZINC000647468483   -0.1300
     17 C17       -14.1209   -3.1240   56.8118 C.3     1  ZINC000647468483   -0.1300
     18 C18       -12.9489   -2.8928   57.7997 C.3     1  ZINC000647468483   -0.0600
     19 H19       -12.3673   -3.8066   57.9221 H       1  ZINC000647468483    0.1300
     20 C20       -12.0677   -1.7688   57.3188 C.ar    1  ZINC000647468483   -0.1200
     21 C21       -12.2055   -1.2850   56.0315 C.ar    1  ZINC000647468483   -0.0700
     22 C22       -11.3970   -0.2538   55.5903 C.ar    1  ZINC000647468483   -0.1000
     23 C23       -10.4513    0.2934   56.4368 C.ar    1  ZINC000647468483   -0.0600
     24 C24       -10.3141   -0.1901   57.7247 C.ar    1  ZINC000647468483   -0.1600
     25 C25        -9.2825    0.4064   58.6475 C.3     1  ZINC000647468483    0.5000
     26 F26        -8.8408   -0.5702   59.5464 F       1  ZINC000647468483   -0.1700
     27 F27        -8.1988    0.8730   57.8960 F       1  ZINC000647468483   -0.1700
     28 F28        -9.8508    1.4701   59.3566 F       1  ZINC000647468483   -0.1700
     29 C29       -11.1252   -1.2180   58.1671 C.ar    1  ZINC000647468483   -0.1100
     30 C30       -14.5108   -1.0259   61.5926 C.3     1  ZINC000647468483   -0.1200
     31 H31       -15.1032    1.7158   61.2118 H       1  ZINC000647468483    0.0800
     32 H32       -13.7881    2.1763   62.3381 H       1  ZINC000647468483    0.0800
     33 H33       -13.3278    1.3123   59.7462 H       1  ZINC000647468483    0.0700
     34 H34       -12.1570    1.0846   61.0760 H       1  ZINC000647468483    0.1000
     35 H35       -15.2108   -3.8085   59.8730 H       1  ZINC000647468483    0.1000
     36 H36       -15.8002   -2.2949   59.1295 H       1  ZINC000647468483    0.0900
     37 H37       -14.9662   -4.8743   57.8073 H       1  ZINC000647468483    0.0800
     38 H38       -16.1828   -3.6684   57.2822 H       1  ZINC000647468483    0.0900
     39 H39       -13.8153   -3.7802   55.9969 H       1  ZINC000647468483    0.0900
     40 H40       -14.4939   -2.1752   56.4260 H       1  ZINC000647468483    0.0800
     41 H41       -12.9446   -1.7126   55.3701 H       1  ZINC000647468483    0.1400
     42 H42       -11.5043    0.1237   54.5842 H       1  ZINC000647468483    0.1500
     43 H43        -9.8193    1.0983   56.0918 H       1  ZINC000647468483    0.1500
     44 H44       -11.0180   -1.5956   59.1733 H       1  ZINC000647468483    0.1400
     45 H45       -14.3105   -1.9731   62.0935 H       1  ZINC000647468483    0.0900
     46 H46       -15.4564   -1.0717   61.0523 H       1  ZINC000647468483    0.1000
@<TRIPOS>BOND
     1     1     2   ar
     2     2     3   ar
     3     2     4    1
     4     4     5    1
     5     4    30    1
     6     4     6    1
     7     6     7    1
     8     6    31    1
     9     6    32    1
    10     7     8    1
    11     7    33    1
    12     7    34    1
    13     8     9    1
    14     8    10    1
    15     8    30    1
    16    10    11    1
    17    10    12    1
    18    10    13    1
    19    13    14    1
    20    13    18    1
    21    13    15    1
    22    15    16    1
    23    15    35    1
    24    15    36    1
    25    16    17    1
    26    16    37    1
    27    16    38    1
    28    17    18    1
    29    17    39    1
    30    17    40    1
    31    18    19    1
    32    18    20    1
    33    20    29   ar
    34    20    21   ar
    35    21    22   ar
    36    21    41    1
    37    22    23   ar
    38    22    42    1
    39    23    24   ar
    40    23    43    1
    41    24    25    1
    42    24    29   ar
    43    25    26    1
    44    25    27    1
    45    25    28    1
    46    29    44    1
    47    30    45    1
    48    30    46    1
@<TRIPOS>SUBSTRUCTURE
     1 ZINC000647468483        1 TEMP              0 ****  ****    0 ROOT


##########                                Name:    ZINC000793092912
##########                DOCK_Rotatable_Bonds:                   4
##########                         Heavy_Atoms:                  26
##########                    Molecular_Weight:               407.2
##########                DOCK_Rotatable_Bonds:                   4
##########                       Formal_Charge:         2.90573e-07
##########                     HBond_Acceptors:                  10
##########                        HBond_Donors:                   1
##########                         Heavy_Atoms:                  26
##########                          Grid_Score:          -26.608015
##########                     Grid_vdw_energy:          -26.530682
##########                      Grid_es_energy:           -0.077334
##########           Internal_energy_repulsive:           14.664351

@<TRIPOS>MOLECULE
ZINC000793092912
 40 43 1 0 0
SMALL
USER_CHARGES


@<TRIPOS>ATOM
      1 C1        -13.7620   -2.2915   57.4979 C.3     1  ZINC000793092912   -0.1300
      2 C2        -12.9696   -2.0567   56.2103 C.3     1  ZINC000793092912   -0.0800
      3 C3        -13.7574   -2.2408   54.9224 C.3     1  ZINC000793092912   -0.1100
      4 C4        -13.6148   -1.0592   53.9816 C.3     1  ZINC000793092912    0.1100
      5 N5        -12.2499   -0.5630   53.9341 N.am    1  ZINC000793092912   -0.5700
      6 C6        -11.6271   -0.4877   52.7413 C.2     1  ZINC000793092912    0.5100
      7 O7        -12.2063   -0.8312   51.7316 O.2     1  ZINC000793092912   -0.5100
      8 C8        -10.2244    0.0183   52.6619 C.2     1  ZINC000793092912    0.5100
      9 O9         -9.3429   -0.7007   52.2380 O.2     1  ZINC000793092912   -0.4900
     10 N10        -9.9370    1.2731   53.0609 N.am    1  ZINC000793092912   -0.6400
     11 C11        -8.6232    1.7469   52.9865 C.ar    1  ZINC000793092912    0.1600
     12 C12        -8.0096    2.2730   54.1158 C.ar    1  ZINC000793092912   -0.1200
     13 C13        -6.7117    2.7416   54.0437 C.ar    1  ZINC000793092912   -0.0600
     14 C14        -6.0190    2.6886   52.8450 C.ar    1  ZINC000793092912    0.0200
     15 O15        -4.7525    3.0790   52.5148 O.3     1  ZINC000793092912   -0.2800
     16 C16        -4.4563    2.4123   51.2734 C.3     1  ZINC000793092912    0.5700
     17 F17        -3.6497    3.2183   50.4629 F       1  ZINC000793092912   -0.1100
     18 F18        -3.8361    1.1813   51.5125 F       1  ZINC000793092912   -0.1500
     19 O19        -5.7496    2.2218   50.6701 O.3     1  ZINC000793092912   -0.2800
     20 C20        -6.6319    2.1614   51.7100 C.ar    1  ZINC000793092912    0.0500
     21 C21        -7.9299    1.6864   51.7842 C.ar    1  ZINC000793092912   -0.0900
     22 C22       -11.5315   -0.1438   55.1282 C.3     1  ZINC000793092912    0.1100
     23 C23       -11.7984   -1.0914   56.2882 C.3     1  ZINC000793092912   -0.1200
     24 H24       -11.6251   -0.6608   57.2744 H       1  ZINC000793092912    0.1400
     25 C25       -11.5250   -2.5839   56.1793 C.3     1  ZINC000793092912    0.0000
     26 Cl26      -10.8956   -3.4254   57.6444 Cl      1  ZINC000793092912   -0.0800
     27 Cl27      -10.9162   -3.2070   54.6006 Cl      1  ZINC000793092912   -0.0900
     28 H28       -14.1829   -1.3471   57.8429 H       1  ZINC000793092912    0.0800
     29 H29       -14.5681   -2.9994   57.3044 H       1  ZINC000793092912    0.0700
     30 H30       -13.0998   -2.6954   58.2635 H       1  ZINC000793092912    0.0700
     31 H31       -13.4024   -3.1389   54.4170 H       1  ZINC000793092912    0.0900
     32 H32       -14.8113   -2.3704   55.1689 H       1  ZINC000793092912    0.1000
     33 H33       -13.9157   -1.3655   52.9797 H       1  ZINC000793092912    0.1100
     34 H34       -14.2721   -0.2572   54.3177 H       1  ZINC000793092912    0.0800
     35 H35       -10.6413    1.8476   53.3997 H       1  ZINC000793092912    0.4300
     36 H36        -8.5476    2.3162   55.0513 H       1  ZINC000793092912    0.1500
     37 H37        -6.2364    3.1501   54.9233 H       1  ZINC000793092912    0.1500
     38 H38        -8.4046    1.2723   50.9071 H       1  ZINC000793092912    0.1600
     39 H39       -10.4614   -0.1478   54.9209 H       1  ZINC000793092912    0.1400
     40 H40       -11.8390    0.8678   55.3932 H       1  ZINC000793092912    0.1000
@<TRIPOS>BOND
     1     1     2    1
     2     1    28    1
     3     1    29    1
     4     1    30    1
     5     2    23    1
     6     2    25    1
     7     2     3    1
     8     3     4    1
     9     3    31    1
    10     3    32    1
    11     4     5    1
    12     4    33    1
    13     4    34    1
    14     5     6   am
    15     5    22    1
    16     6     7    2
    17     6     8    1
    18     8     9    2
    19     8    10   am
    20    10    11    1
    21    10    35    1
    22    11    21   ar
    23    11    12   ar
    24    12    13   ar
    25    12    36    1
    26    13    14   ar
    27    13    37    1
    28    14    20   ar
    29    14    15    1
    30    15    16    1
    31    16    17    1
    32    16    18    1
    33    16    19    1
    34    19    20    1
    35    20    21   ar
    36    21    38    1
    37    22    23    1
    38    22    39    1
    39    22    40    1
    40    23    24    1
    41    23    25    1
    42    25    26    1
    43    25    27    1
@<TRIPOS>SUBSTRUCTURE
     1 ZINC000793092912        1 TEMP              0 ****  ****    0 ROOT


##########                                Name:    ZINC001091652821
##########                DOCK_Rotatable_Bonds:                   4
##########                         Heavy_Atoms:                  24
##########                    Molecular_Weight:             345.465
##########                DOCK_Rotatable_Bonds:                   4
##########                       Formal_Charge:          -0.0199997
##########                     HBond_Acceptors:                   6
##########                        HBond_Donors:                   0
##########                         Heavy_Atoms:                  24
##########                          Grid_Score:          -26.602438
##########                     Grid_vdw_energy:          -25.960346
##########                      Grid_es_energy:           -0.642091
##########           Internal_energy_repulsive:            5.942960

@<TRIPOS>MOLECULE
ZINC001091652821
 47 50 1 0 0
SMALL
USER_CHARGES


@<TRIPOS>ATOM
      1 C1         -3.9890    3.2733   51.2800 C.3     1  ZINC001091652821   -0.1000
      2 C2         -5.4136    2.8810   50.9840 C.2     1  ZINC001091652821   -0.1200
      3 C3         -6.1918    3.5789   50.1485 C.2     1  ZINC001091652821   -0.2400
      4 S4         -7.7423    2.8772   50.0292 S.3     1  ZINC001091652821    0.2100
      5 C5         -7.3032    1.5989   51.1538 C.2     1  ZINC001091652821   -0.2700
      6 C6         -8.1845    0.5131   51.5934 C.2     1  ZINC001091652821    0.6100
      7 O7         -7.8026   -0.6411   51.5371 O.2     1  ZINC001091652821   -0.5200
      8 N8         -9.4176    0.7931   52.0598 N.am    1  ZINC001091652821   -0.6200
      9 C9        -10.4161   -0.1744   52.5432 C.3     1  ZINC001091652821    0.0900
     10 C10       -11.2282    0.5467   53.6316 C.3     1  ZINC001091652821   -0.0900
     11 H11       -12.2880    0.2962   53.5846 H       1  ZINC001091652821    0.1100
     12 C12       -10.6177    0.2261   55.0120 C.3     1  ZINC001091652821    0.0400
     13 N13       -10.5961    1.5284   55.7259 N.3     1  ZINC001091652821   -0.5000
     14 C14        -9.6243    1.5089   56.8273 C.3     1  ZINC001091652821    0.1200
     15 C15       -10.1044    0.5706   57.9043 C.2     1  ZINC001091652821    0.0000
     16 C16       -11.3845    0.2811   58.1907 C.2     1  ZINC001091652821   -0.0800
     17 O17       -11.3735   -0.5947   59.2147 O.3     1  ZINC001091652821   -0.2000
     18 C18       -10.0948   -0.8279   59.5390 C.2     1  ZINC001091652821    0.1900
     19 C19        -9.6209   -1.7488   60.6338 C.3     1  ZINC001091652821   -0.0600
     20 N20        -9.3284   -0.1323   58.7482 N.2     1  ZINC001091652821   -0.4700
     21 C21       -10.1995    2.5091   54.6834 C.3     1  ZINC001091652821    0.0400
     22 C22       -10.9736    2.0581   53.3969 C.3     1  ZINC001091652821   -0.0700
     23 C23       -12.2574    2.8636   53.1871 C.3     1  ZINC001091652821   -0.1300
     24 C24       -10.0264    2.1268   52.1914 C.3     1  ZINC001091652821    0.1200
     25 C25        -6.0069    1.7765   51.5480 C.2     1  ZINC001091652821   -0.0500
     26 H26        -3.3233    2.7924   50.5633 H       1  ZINC001091652821    0.0700
     27 H27        -3.8864    4.3557   51.2015 H       1  ZINC001091652821    0.0700
     28 H28        -3.7269    2.9558   52.2892 H       1  ZINC001091652821    0.0700
     29 H29        -5.8800    4.4680   49.6206 H       1  ZINC001091652821    0.1700
     30 H30       -11.0712   -0.4758   51.7257 H       1  ZINC001091652821    0.0800
     31 H31        -9.9177   -1.0472   52.9649 H       1  ZINC001091652821    0.0800
     32 H32       -11.2421   -0.4897   55.5465 H       1  ZINC001091652821    0.0800
     33 H33        -9.6054   -0.1617   54.8989 H       1  ZINC001091652821    0.0500
     34 H34        -8.6584    1.1693   56.4536 H       1  ZINC001091652821    0.0500
     35 H35        -9.5218    2.5129   57.2392 H       1  ZINC001091652821    0.1000
     36 H36       -12.2582    0.6763   57.6938 H       1  ZINC001091652821    0.2100
     37 H37       -10.4819   -2.2004   61.1268 H       1  ZINC001091652821    0.0900
     38 H38        -8.9959   -2.5319   60.2047 H       1  ZINC001091652821    0.1000
     39 H39        -9.0423   -1.1802   61.3619 H       1  ZINC001091652821    0.1000
     40 H40       -10.5086    3.5143   54.9701 H       1  ZINC001091652821    0.0900
     41 H41        -9.1225    2.4744   54.5193 H       1  ZINC001091652821    0.0500
     42 H42       -12.0087    3.9178   53.0642 H       1  ZINC001091652821    0.0600
     43 H43       -12.7696    2.5047   52.2944 H       1  ZINC001091652821    0.0600
     44 H44       -12.9081    2.7423   54.0531 H       1  ZINC001091652821    0.0700
     45 H45        -9.2421    2.8617   52.3733 H       1  ZINC001091652821    0.0900
     46 H46       -10.5839    2.3889   51.2922 H       1  ZINC001091652821    0.0800
     47 H47        -5.5013    1.1192   52.2398 H       1  ZINC001091652821    0.1500
@<TRIPOS>BOND
     1     1     2    1
     2     1    26    1
     3     1    27    1
     4     1    28    1
     5     2    25    1
     6     2     3    2
     7     3     4    1
     8     3    29    1
     9     4     5    1
    10     5     6    1
    11     5    25    2
    12     6     7    2
    13     6     8   am
    14     8    24    1
    15     8     9    1
    16     9    10    1
    17     9    30    1
    18     9    31    1
    19    10    11    1
    20    10    22    1
    21    10    12    1
    22    12    13    1
    23    12    32    1
    24    12    33    1
    25    13    14    1
    26    13    21    1
    27    14    15    1
    28    14    34    1
    29    14    35    1
    30    15    20    1
    31    15    16    2
    32    16    17    1
    33    16    36    1
    34    17    18    1
    35    18    19    1
    36    18    20    2
    37    19    37    1
    38    19    38    1
    39    19    39    1
    40    21    22    1
    41    21    40    1
    42    21    41    1
    43    22    23    1
    44    22    24    1
    45    23    42    1
    46    23    43    1
    47    23    44    1
    48    24    45    1
    49    24    46    1
    50    25    47    1
@<TRIPOS>SUBSTRUCTURE
     1 ZINC001091652821        1 TEMP              0 ****  ****    0 ROOT


##########                                Name:    ZINC000950547210
##########                DOCK_Rotatable_Bonds:                   5
##########                         Heavy_Atoms:                  25
##########                    Molecular_Weight:              346.47
##########                DOCK_Rotatable_Bonds:                   5
##########                       Formal_Charge:         5.58794e-07
##########                     HBond_Acceptors:                   5
##########                        HBond_Donors:                   1
##########                         Heavy_Atoms:                  25
##########                          Grid_Score:          -26.595161
##########                     Grid_vdw_energy:          -25.526218
##########                      Grid_es_energy:           -1.068943
##########           Internal_energy_repulsive:           17.377611

@<TRIPOS>MOLECULE
ZINC000950547210
 55 58 1 0 0
SMALL
USER_CHARGES


@<TRIPOS>ATOM
      1 O1         -8.4742   -0.0266   58.0779 O.2     1  ZINC000950547210   -0.5200
      2 C2         -8.8994    1.0440   58.4576 C.2     1  ZINC000950547210    0.5200
      3 N3         -8.6544    2.1589   57.7412 N.am    1  ZINC000950547210   -0.7300
      4 C4         -7.8694    2.0787   56.5069 C.3     1  ZINC000950547210    0.1300
      5 H5         -7.2288    1.1974   56.5398 H       1  ZINC000950547210    0.0900
      6 C6         -8.8137    1.9792   55.3065 C.3     1  ZINC000950547210   -0.1300
      7 C7         -7.9945    1.8623   54.0192 C.3     1  ZINC000950547210   -0.1300
      8 C8         -7.1310    3.1166   53.8525 C.3     1  ZINC000950547210    0.1000
      9 N9         -6.3242    3.3001   55.0666 N.am    1  ZINC000950547210   -0.6100
     10 C10        -4.9854    3.4339   54.9876 C.2     1  ZINC000950547210    0.5600
     11 O11        -4.4341    3.4034   53.9040 O.2     1  ZINC000950547210   -0.5200
     12 C12        -4.1910    3.6169   56.2121 C.2     1  ZINC000950547210   -0.1400
     13 C13        -4.1168    4.8208   56.7503 C.2     1  ZINC000950547210   -0.1500
     14 C14        -3.3226    5.1034   57.9943 C.3     1  ZINC000950547210    0.0900
     15 O15        -3.0045    3.8807   58.6619 O.3     1  ZINC000950547210   -0.3700
     16 C16        -2.4202    2.9019   57.7941 C.3     1  ZINC000950547210    0.0600
     17 C17        -3.4958    2.4254   56.8117 C.3     1  ZINC000950547210   -0.1100
     18 C18        -7.0039    3.3350   56.3687 C.3     1  ZINC000950547210    0.1000
     19 C19        -9.7070    1.1264   59.7273 C.3     1  ZINC000950547210   -0.1000
     20 H20        -9.5571    2.1017   60.1906 H       1  ZINC000950547210    0.1000
     21 C21        -9.2540    0.0286   60.6920 C.3     1  ZINC000950547210   -0.1100
     22 C22       -10.4352   -0.8906   61.0094 C.3     1  ZINC000950547210   -0.0900
     23 C23       -11.5569   -0.0750   61.6554 C.3     1  ZINC000950547210   -0.1100
     24 C24       -12.0099    1.0227   60.6907 C.3     1  ZINC000950547210   -0.1100
     25 C25       -11.1901    0.9390   59.4016 C.3     1  ZINC000950547210   -0.0600
     26 C26       -11.4004   -0.4299   58.7514 C.3     1  ZINC000950547210   -0.1300
     27 C27       -10.9474   -1.5277   59.7161 C.3     1  ZINC000950547210   -0.1200
     28 H28        -8.9979    3.0145   58.0429 H       1  ZINC000950547210    0.4000
     29 H29        -9.4474    1.0989   55.4150 H       1  ZINC000950547210    0.0800
     30 H30        -9.4374    2.8719   55.2603 H       1  ZINC000950547210    0.0700
     31 H31        -7.3522    0.9833   54.0752 H       1  ZINC000950547210    0.0700
     32 H32        -8.6675    1.7680   53.1670 H       1  ZINC000950547210    0.0900
     33 H33        -6.4735    2.9959   52.9916 H       1  ZINC000950547210    0.0900
     34 H34        -7.7729    3.9853   53.7055 H       1  ZINC000950547210    0.0700
     35 H35        -4.6473    5.6341   56.2776 H       1  ZINC000950547210    0.1200
     36 H36        -2.4006    5.6188   57.7253 H       1  ZINC000950547210    0.0700
     37 H37        -3.9077    5.7374   58.6604 H       1  ZINC000950547210    0.1100
     38 H38        -1.5899    3.3473   57.2461 H       1  ZINC000950547210    0.0600
     39 H39        -2.0631    2.0569   58.3829 H       1  ZINC000950547210    0.1000
     40 H40        -4.2189    1.8031   57.3390 H       1  ZINC000950547210    0.0900
     41 H41        -3.0292    1.8445   56.0162 H       1  ZINC000950547210    0.0900
     42 H42        -7.6357    4.2213   56.4274 H       1  ZINC000950547210    0.0700
     43 H43        -6.2626    3.3587   57.1674 H       1  ZINC000950547210    0.1000
     44 H44        -8.4548   -0.5524   60.2318 H       1  ZINC000950547210    0.0700
     45 H45        -8.8890    0.4825   61.6134 H       1  ZINC000950547210    0.0700
     46 H46       -10.1124   -1.6727   61.6966 H       1  ZINC000950547210    0.0700
     47 H47       -12.3984   -0.7299   61.8815 H       1  ZINC000950547210    0.0600
     48 H48       -11.1920    0.3788   62.5768 H       1  ZINC000950547210    0.0600
     49 H49       -13.0666    0.8892   60.4586 H       1  ZINC000950547210    0.0700
     50 H50       -11.8601    1.9979   61.1539 H       1  ZINC000950547210    0.0600
     51 H51       -11.5128    1.7210   58.7144 H       1  ZINC000950547210    0.0800
     52 H52       -12.4571   -0.5635   58.5194 H       1  ZINC000950547210    0.0600
     53 H53       -10.8164   -0.4897   57.8330 H       1  ZINC000950547210    0.0900
     54 H54       -10.1483   -2.1088   59.2559 H       1  ZINC000950547210    0.0600
     55 H55       -11.7889   -2.1826   59.9423 H       1  ZINC000950547210    0.0600
@<TRIPOS>BOND
     1     1     2    2
     2     2     3   am
     3     2    19    1
     4     3     4    1
     5     3    28    1
     6     4     5    1
     7     4    18    1
     8     4     6    1
     9     6     7    1
    10     6    29    1
    11     6    30    1
    12     7     8    1
    13     7    31    1
    14     7    32    1
    15     8     9    1
    16     8    33    1
    17     8    34    1
    18     9    10   am
    19     9    18    1
    20    10    11    2
    21    10    12    1
    22    12    17    1
    23    12    13    2
    24    13    14    1
    25    13    35    1
    26    14    15    1
    27    14    36    1
    28    14    37    1
    29    15    16    1
    30    16    17    1
    31    16    38    1
    32    16    39    1
    33    17    40    1
    34    17    41    1
    35    18    42    1
    36    18    43    1
    37    19    20    1
    38    19    25    1
    39    19    21    1
    40    21    22    1
    41    21    44    1
    42    21    45    1
    43    22    27    1
    44    22    23    1
    45    22    46    1
    46    23    24    1
    47    23    47    1
    48    23    48    1
    49    24    25    1
    50    24    49    1
    51    24    50    1
    52    25    26    1
    53    25    51    1
    54    26    27    1
    55    26    52    1
    56    26    53    1
    57    27    54    1
    58    27    55    1
@<TRIPOS>SUBSTRUCTURE
     1 ZINC000950547210        1 TEMP              0 ****  ****    0 ROOT


##########                                Name:    ZINC000540473851
##########                DOCK_Rotatable_Bonds:                   5
##########                         Heavy_Atoms:                  29
##########                    Molecular_Weight:             411.503
##########                DOCK_Rotatable_Bonds:                   5
##########                       Formal_Charge:           0.0200001
##########                     HBond_Acceptors:                   8
##########                        HBond_Donors:                   0
##########                         Heavy_Atoms:                  29
##########                          Grid_Score:          -26.551310
##########                     Grid_vdw_energy:          -25.989513
##########                      Grid_es_energy:           -0.561796
##########           Internal_energy_repulsive:           27.387228

@<TRIPOS>MOLECULE
ZINC000540473851
 51 54 1 0 0
SMALL
USER_CHARGES


@<TRIPOS>ATOM
      1 C1          4.4224    3.4423   53.6188 C.3     1  ZINC000540473851   -0.0800
      2 C2          2.9750    3.4085   54.0371 C.2     1  ZINC000540473851    0.1500
      3 C3          1.9523    3.8045   53.2168 C.2     1  ZINC000540473851   -0.3100
      4 C4          2.0887    4.3088   51.8449 C.2     1  ZINC000540473851    0.6000
      5 O5          2.4823    5.4436   51.6502 O.2     1  ZINC000540473851   -0.5100
      6 N6          1.7780    3.5149   50.8011 N.am    1  ZINC000540473851   -0.6100
      7 C7          1.9131    3.9981   49.4186 C.3     1  ZINC000540473851    0.1000
      8 C8          2.7293    2.9741   48.6226 C.3     1  ZINC000540473851    0.0400
      9 N9          2.1124    1.6479   48.7596 N.3     1  ZINC000540473851   -0.5300
     10 C10         2.7622    0.6711   47.8756 C.3     1  ZINC000540473851    0.1200
     11 H11         2.5316   -0.3380   48.2172 H       1  ZINC000540473851    0.0500
     12 C12         4.2769    0.8856   47.9045 C.3     1  ZINC000540473851   -0.1400
     13 C13         2.2560    0.8529   46.4678 C.ar    1  ZINC000540473851   -0.0500
     14 C14         2.9447    1.6637   45.5854 C.ar    1  ZINC000540473851   -0.1000
     15 C15         2.4815    1.8315   44.2934 C.ar    1  ZINC000540473851   -0.0900
     16 C16         1.3293    1.1885   43.8831 C.ar    1  ZINC000540473851   -0.1500
     17 C17         0.6387    0.3755   44.7663 C.ar    1  ZINC000540473851    0.1000
     18 F18        -0.4879   -0.2535   44.3662 F       1  ZINC000540473851   -0.1400
     19 C19         1.1064    0.2041   46.0580 C.ar    1  ZINC000540473851   -0.1500
     20 C20         2.1353    1.1912   50.1557 C.3     1  ZINC000540473851    0.0400
     21 C21         1.3006    2.1401   51.0143 C.3     1  ZINC000540473851    0.1200
     22 S22         0.4434    3.5997   54.1034 S.3     1  ZINC000540473851    0.2800
     23 C23         1.3055    3.0159   55.4590 C.2     1  ZINC000540473851    0.0800
     24 C24         0.6854    2.5889   56.7327 C.ar    1  ZINC000540473851    0.3800
     25 N25        -0.6336    2.6500   56.8635 N.ar    1  ZINC000540473851   -0.5100
     26 C26        -1.2187    2.2763   57.9877 C.ar    1  ZINC000540473851    0.1600
     27 C27        -0.4367    1.8163   59.0375 C.ar    1  ZINC000540473851   -0.2100
     28 C28         0.9394    1.7652   58.8671 C.ar    1  ZINC000540473851    0.1500
     29 N29         1.4610    2.1488   57.7152 N.ar    1  ZINC000540473851   -0.4700
     30 N30         2.5842    2.9938   55.2116 N.2     1  ZINC000540473851   -0.4300
     31 H31         4.6883    2.4935   53.1528 H       1  ZINC000540473851    0.0900
     32 H32         4.5759    4.2527   52.9062 H       1  ZINC000540473851    0.0800
     33 H33         5.0501    3.6053   54.4950 H       1  ZINC000540473851    0.0800
     34 H34         0.9254    4.1069   48.9706 H       1  ZINC000540473851    0.0900
     35 H35         2.4278    4.9588   49.4151 H       1  ZINC000540473851    0.0900
     36 H36         2.7460    3.2605   47.5710 H       1  ZINC000540473851    0.1000
     37 H37         3.7484    2.9427   49.0078 H       1  ZINC000540473851    0.0400
     38 H38         4.5075    1.8947   47.5630 H       1  ZINC000540473851    0.0700
     39 H39         4.6430    0.7541   48.9228 H       1  ZINC000540473851    0.0600
     40 H40         4.7591    0.1608   47.2486 H       1  ZINC000540473851    0.0600
     41 H41         3.8452    2.1670   45.9053 H       1  ZINC000540473851    0.1400
     42 H42         3.0202    2.4656   43.6049 H       1  ZINC000540473851    0.1300
     43 H43         0.9673    1.3202   42.8742 H       1  ZINC000540473851    0.1300
     44 H44         0.5689   -0.4299   46.7474 H       1  ZINC000540473851    0.1300
     45 H45         1.7212    0.1847   50.2160 H       1  ZINC000540473851    0.1000
     46 H46         3.1628    1.1847   50.5195 H       1  ZINC000540473851    0.0400
     47 H47         1.4075    1.8725   52.0655 H       1  ZINC000540473851    0.1000
     48 H48         0.2529    2.0732   50.7213 H       1  ZINC000540473851    0.0800
     49 H49        -2.2927    2.3287   58.0884 H       1  ZINC000540473851    0.1800
     50 H50        -0.8893    1.5049   59.9673 H       1  ZINC000540473851    0.1600
     51 H51         1.5761    1.4121   59.6647 H       1  ZINC000540473851    0.1800
@<TRIPOS>BOND
     1     1     2    1
     2     1    31    1
     3     1    32    1
     4     1    33    1
     5     2    30    1
     6     2     3    2
     7     3     4    1
     8     3    22    1
     9     4     5    2
    10     4     6   am
    11     6    21    1
    12     6     7    1
    13     7     8    1
    14     7    34    1
    15     7    35    1
    16     8     9    1
    17     8    36    1
    18     8    37    1
    19     9    10    1
    20     9    20    1
    21    10    11    1
    22    10    12    1
    23    10    13    1
    24    12    38    1
    25    12    39    1
    26    12    40    1
    27    13    19   ar
    28    13    14   ar
    29    14    15   ar
    30    14    41    1
    31    15    16   ar
    32    15    42    1
    33    16    17   ar
    34    16    43    1
    35    17    18    1
    36    17    19   ar
    37    19    44    1
    38    20    21    1
    39    20    45    1
    40    20    46    1
    41    21    47    1
    42    21    48    1
    43    22    23    1
    44    23    24    1
    45    23    30    2
    46    24    29   ar
    47    24    25   ar
    48    25    26   ar
    49    26    27   ar
    50    26    49    1
    51    27    28   ar
    52    27    50    1
    53    28    29   ar
    54    28    51    1
@<TRIPOS>SUBSTRUCTURE
     1 ZINC000540473851        1 TEMP              0 ****  ****    0 ROOT


##########                                Name:    ZINC001039666729
##########                DOCK_Rotatable_Bonds:                   3
##########                         Heavy_Atoms:                  25
##########                    Molecular_Weight:             344.376
##########                DOCK_Rotatable_Bonds:                   3
##########                       Formal_Charge:          -0.0199998
##########                     HBond_Acceptors:                  10
##########                        HBond_Donors:                   2
##########                         Heavy_Atoms:                  25
##########                          Grid_Score:          -26.493118
##########                     Grid_vdw_energy:          -26.525618
##########                      Grid_es_energy:            0.032500
##########           Internal_energy_repulsive:           43.273308

@<TRIPOS>MOLECULE
ZINC001039666729
 45 47 1 0 0
SMALL
USER_CHARGES


@<TRIPOS>ATOM
      1 C1        -13.4534   -1.2916   56.3002 C.3     1  ZINC001039666729   -0.1100
      2 C2        -12.2946   -1.8831   57.0608 C.ar    1  ZINC001039666729    0.2200
      3 C3        -12.1493   -3.2577   57.1600 C.ar    1  ZINC001039666729   -0.3000
      4 C4        -11.0693   -3.7605   57.8688 C.ar    1  ZINC001039666729    0.1900
      5 N5        -10.2149   -2.9185   58.4260 N.ar    1  ZINC001039666729   -0.5800
      6 C6        -10.3827   -1.6090   58.3122 C.ar    1  ZINC001039666729    0.6000
      7 N7         -9.4691   -0.7566   58.9076 N.pl3   1  ZINC001039666729   -0.5900
      8 C8         -8.8907    0.4444   58.2309 C.3     1  ZINC001039666729    0.1200
      9 C9         -9.9169    1.5757   58.3260 C.3     1  ZINC001039666729    0.0900
     10 N10       -10.1277    1.8976   59.7594 N.am    1  ZINC001039666729   -0.7400
     11 C11       -11.2343    1.3116   60.3154 C.2     1  ZINC001039666729    0.5200
     12 O12       -11.9550    0.5949   59.6537 O.2     1  ZINC001039666729   -0.5200
     13 C13       -11.5355    1.5775   61.7679 C.3     1  ZINC001039666729   -0.1500
     14 C14       -11.5118    0.2587   62.5434 C.3     1  ZINC001039666729    0.1100
     15 N15       -10.1878   -0.3829   62.3358 N.am    1  ZINC001039666729   -0.6100
     16 C16        -9.1241   -0.1276   63.1230 C.2     1  ZINC001039666729    0.6100
     17 O17        -8.0624   -0.6793   62.9081 O.2     1  ZINC001039666729   -0.5200
     18 C18        -9.2483    0.8233   64.2478 C.2     1  ZINC001039666729   -0.0400
     19 N19       -10.3145    1.5343   64.5820 N.2     1  ZINC001039666729   -0.2500
     20 N20       -10.0260    2.2413   65.6166 N.pl3   1  ZINC001039666729   -0.2300
     21 N21        -8.8142    2.0380   65.9931 N.2     1  ZINC001039666729   -0.2800
     22 C22        -8.2591    1.1593   65.1935 C.2     1  ZINC001039666729    0.0400
     23 C23       -10.1304   -1.3289   61.1914 C.3     1  ZINC001039666729    0.1100
     24 C24        -8.9561   -0.9313   60.3007 C.3     1  ZINC001039666729    0.1300
     25 N25       -11.4008   -1.0964   57.6373 N.ar    1  ZINC001039666729   -0.5700
     26 H26       -13.1714   -1.1561   55.2561 H       1  ZINC001039666729    0.0800
     27 H27       -14.3091   -1.9641   56.3610 H       1  ZINC001039666729    0.0800
     28 H28       -13.7178   -0.3270   56.7333 H       1  ZINC001039666729    0.0800
     29 H29       -12.8622   -3.9228   56.6955 H       1  ZINC001039666729    0.1400
     30 H30       -10.9274   -4.8267   57.9653 H       1  ZINC001039666729    0.1600
     31 H31        -7.9680    0.7405   58.7299 H       1  ZINC001039666729    0.0800
     32 H32        -8.6885    0.2167   57.1843 H       1  ZINC001039666729    0.0900
     33 H33        -9.5425    2.4557   57.8032 H       1  ZINC001039666729    0.0800
     34 H34       -10.8583    1.2557   57.8793 H       1  ZINC001039666729    0.1000
     35 H35        -9.5313    2.4752   60.2611 H       1  ZINC001039666729    0.4100
     36 H36       -10.7842    2.2530   62.1770 H       1  ZINC001039666729    0.0800
     37 H37       -12.5214    2.0337   61.8569 H       1  ZINC001039666729    0.1100
     38 H38       -11.6628    0.4543   63.6050 H       1  ZINC001039666729    0.1100
     39 H39       -12.3000   -0.3980   62.1750 H       1  ZINC001039666729    0.0900
     40 H40       -10.6422    2.8488   66.0552 H       1  ZINC001039666729    0.4700
     41 H41        -7.2500    0.7777   65.2446 H       1  ZINC001039666729    0.2100
     42 H42        -9.9872   -2.3443   61.5611 H       1  ZINC001039666729    0.0800
     43 H43       -11.0578   -1.2725   60.6215 H       1  ZINC001039666729    0.1200
     44 H44        -8.2000   -1.7162   60.3151 H       1  ZINC001039666729    0.0700
     45 H45        -8.5243    0.0044   60.6558 H       1  ZINC001039666729    0.0900
@<TRIPOS>BOND
     1     1     2    1
     2     1    26    1
     3     1    27    1
     4     1    28    1
     5     2    25   ar
     6     2     3   ar
     7     3     4   ar
     8     3    29    1
     9     4     5   ar
    10     4    30    1
    11     5     6   ar
    12     6     7    1
    13     6    25   ar
    14     7    24    1
    15     7     8    1
    16     8     9    1
    17     8    31    1
    18     8    32    1
    19     9    10    1
    20     9    33    1
    21     9    34    1
    22    10    11   am
    23    10    35    1
    24    11    12    2
    25    11    13    1
    26    13    14    1
    27    13    36    1
    28    13    37    1
    29    14    15    1
    30    14    38    1
    31    14    39    1
    32    15    16   am
    33    15    23    1
    34    16    17    2
    35    16    18    1
    36    18    22    1
    37    18    19    2
    38    19    20    1
    39    20    21    1
    40    20    40    1
    41    21    22    2
    42    22    41    1
    43    23    24    1
    44    23    42    1
    45    23    43    1
    46    24    44    1
    47    24    45    1
@<TRIPOS>SUBSTRUCTURE
     1 ZINC001039666729        1 TEMP              0 ****  ****    0 ROOT


##########                                Name:    ZINC000944933040
##########                DOCK_Rotatable_Bonds:                   4
##########                         Heavy_Atoms:                  26
##########                    Molecular_Weight:             354.449
##########                DOCK_Rotatable_Bonds:                   4
##########                       Formal_Charge:           0.0100002
##########                     HBond_Acceptors:                   5
##########                        HBond_Donors:                   0
##########                         Heavy_Atoms:                  26
##########                          Grid_Score:          -26.488939
##########                     Grid_vdw_energy:          -26.356241
##########                      Grid_es_energy:           -0.132699
##########           Internal_energy_repulsive:           14.761078

@<TRIPOS>MOLECULE
ZINC000944933040
 52 57 1 0 0
SMALL
USER_CHARGES


@<TRIPOS>ATOM
      1 O1         -8.8310   -1.1635   51.7398 O.2     1  ZINC000944933040   -0.5200
      2 C2         -9.4146   -0.1787   52.1503 C.2     1  ZINC000944933040    0.6400
      3 C3         -8.8352    1.1198   51.9802 C.1     1  ZINC000944933040   -0.2200
      4 C4         -8.3601    2.1843   51.8406 C.1     1  ZINC000944933040   -0.0400
      5 C5         -7.7646    3.5190   51.6657 C.3     1  ZINC000944933040   -0.0700
      6 C6         -7.1941    3.8630   50.2884 C.3     1  ZINC000944933040   -0.1600
      7 C7         -8.4998    4.5073   50.7582 C.3     1  ZINC000944933040   -0.1600
      8 N8        -10.6092   -0.3088   52.7606 N.am    1  ZINC000944933040   -0.6000
      9 C9        -11.3287    0.8748   53.2494 C.3     1  ZINC000944933040    0.1100
     10 C10       -11.6275    0.6887   54.7418 C.3     1  ZINC000944933040   -0.1200
     11 C11       -12.3235   -0.6543   54.9487 C.3     1  ZINC000944933040   -0.0900
     12 C12       -12.8687   -0.8520   56.3698 C.3     1  ZINC000944933040    0.1200
     13 N13       -14.0671   -1.4191   55.7195 N.am    1  ZINC000944933040   -0.6400
     14 C14       -15.0318   -2.2785   56.1033 C.2     1  ZINC000944933040    0.5500
     15 O15       -15.9215   -2.5742   55.3340 O.2     1  ZINC000944933040   -0.5300
     16 C16       -15.0049   -2.8721   57.4882 C.3     1  ZINC000944933040   -0.1300
     17 H17       -14.1776   -3.5746   57.5896 H       1  ZINC000944933040    0.1100
     18 C18       -16.3539   -3.5613   57.8164 C.3     1  ZINC000944933040   -0.1300
     19 C19       -16.8678   -2.7475   59.0418 C.3     1  ZINC000944933040    0.0900
     20 H20       -17.9423   -2.7968   59.2183 H       1  ZINC000944933040    0.1300
     21 O21       -16.3337   -1.4157   58.7446 O.3     1  ZINC000944933040   -0.3600
     22 C22       -14.9133   -1.7518   58.5673 C.3     1  ZINC000944933040    0.1200
     23 H23       -14.2553   -0.9147   58.3342 H       1  ZINC000944933040    0.1400
     24 C24       -14.6067   -2.4905   59.9046 C.3     1  ZINC000944933040   -0.2000
     25 H25       -13.6422   -2.9873   60.0091 H       1  ZINC000944933040    0.1200
     26 C26       -15.3803   -2.0415   61.1458 C.3     1  ZINC000944933040   -0.1300
     27 C27       -15.9733   -3.1935   60.2371 C.3     1  ZINC000944933040   -0.2000
     28 H28       -16.0510   -4.2105   60.6215 H       1  ZINC000944933040    0.1300
     29 C29       -13.7855   -0.6666   54.4807 C.3     1  ZINC000944933040    0.1100
     30 C30       -11.5085   -1.8391   54.4360 C.3     1  ZINC000944933040   -0.1100
     31 C31       -11.2130   -1.6357   52.9406 C.3     1  ZINC000944933040    0.1100
     32 H32        -7.2515    3.9228   52.5385 H       1  ZINC000944933040    0.1400
     33 H33        -6.3054    4.4933   50.2549 H       1  ZINC000944933040    0.1100
     34 H34        -7.2598    3.1010   49.5118 H       1  ZINC000944933040    0.1000
     35 H35        -9.4246    4.1692   50.2908 H       1  ZINC000944933040    0.1000
     36 H36        -8.4702    5.5615   51.0338 H       1  ZINC000944933040    0.1100
     37 H37       -10.7113    1.7619   53.1082 H       1  ZINC000944933040    0.0900
     38 H38       -12.2638    0.9865   52.7007 H       1  ZINC000944933040    0.0800
     39 H39       -10.6945    0.7062   55.3053 H       1  ZINC000944933040    0.0800
     40 H40       -12.2775    1.4929   55.0864 H       1  ZINC000944933040    0.0900
     41 H41       -12.3054   -1.5746   56.9602 H       1  ZINC000944933040    0.0800
     42 H42       -13.0570    0.0803   56.9021 H       1  ZINC000944933040    0.0900
     43 H43       -17.0455   -3.4754   56.9784 H       1  ZINC000944933040    0.0800
     44 H44       -16.1984   -4.6063   58.0847 H       1  ZINC000944933040    0.0900
     45 H45       -14.9862   -2.3391   62.1176 H       1  ZINC000944933040    0.1000
     46 H46       -15.8560   -1.0612   61.1134 H       1  ZINC000944933040    0.1000
     47 H47       -14.2462    0.3209   54.4517 H       1  ZINC000944933040    0.0900
     48 H48       -13.9507   -1.2416   53.5697 H       1  ZINC000944933040    0.0800
     49 H49       -10.5717   -1.9037   54.9894 H       1  ZINC000944933040    0.0800
     50 H50       -12.0774   -2.7588   54.5719 H       1  ZINC000944933040    0.0800
     51 H51       -12.1410   -1.7009   52.3726 H       1  ZINC000944933040    0.0700
     52 H52       -10.5177   -2.4020   52.5979 H       1  ZINC000944933040    0.1000
@<TRIPOS>BOND
     1     1     2    2
     2     2     3    1
     3     2     8   am
     4     3     4    3
     5     4     5    1
     6     5     7    1
     7     5     6    1
     8     5    32    1
     9     6     7    1
    10     6    33    1
    11     6    34    1
    12     7    35    1
    13     7    36    1
    14     8    31    1
    15     8     9    1
    16     9    10    1
    17     9    37    1
    18     9    38    1
    19    10    11    1
    20    10    39    1
    21    10    40    1
    22    11    29    1
    23    11    12    1
    24    11    30    1
    25    12    13    1
    26    12    41    1
    27    12    42    1
    28    13    14   am
    29    13    29    1
    30    14    15    2
    31    14    16    1
    32    16    17    1
    33    16    22    1
    34    16    18    1
    35    18    19    1
    36    18    43    1
    37    18    44    1
    38    19    20    1
    39    19    27    1
    40    19    21    1
    41    21    22    1
    42    22    23    1
    43    22    24    1
    44    24    25    1
    45    24    27    1
    46    24    26    1
    47    26    27    1
    48    26    45    1
    49    26    46    1
    50    27    28    1
    51    29    47    1
    52    29    48    1
    53    30    31    1
    54    30    49    1
    55    30    50    1
    56    31    51    1
    57    31    52    1
@<TRIPOS>SUBSTRUCTURE
     1 ZINC000944933040        1 TEMP              0 ****  ****    0 ROOT


##########                                Name:    ZINC000541252362
##########                DOCK_Rotatable_Bonds:                   5
##########                         Heavy_Atoms:                  27
##########                    Molecular_Weight:             401.254
##########                DOCK_Rotatable_Bonds:                   5
##########                       Formal_Charge:          -0.0199999
##########                     HBond_Acceptors:                   9
##########                        HBond_Donors:                   1
##########                         Heavy_Atoms:                  27
##########                          Grid_Score:          -26.486851
##########                     Grid_vdw_energy:          -27.093895
##########                      Grid_es_energy:            0.607044
##########           Internal_energy_repulsive:            4.836625

@<TRIPOS>MOLECULE
ZINC000541252362
 41 44 1 0 0
SMALL
USER_CHARGES


@<TRIPOS>ATOM
      1 C1         -1.5956    1.7029   65.0237 C.3     1  ZINC000541252362    0.1000
      2 N2         -0.7943    1.5087   63.8127 N.pl3   1  ZINC000541252362   -0.3800
      3 C3          0.3733    0.8474   63.7177 C.2     1  ZINC000541252362    0.2600
      4 N4          0.7718    0.8951   62.4741 N.2     1  ZINC000541252362   -0.5300
      5 C5         -0.1154    1.5795   61.7397 C.2     1  ZINC000541252362    0.2700
      6 C6         -0.0106    1.8459   60.2835 C.ar    1  ZINC000541252362    0.0000
      7 C7          1.0807    1.3657   59.5622 C.ar    1  ZINC000541252362   -0.1000
      8 C8          1.1768    1.6141   58.2073 C.ar    1  ZINC000541252362   -0.1000
      9 C9          0.1930    2.3388   57.5621 C.ar    1  ZINC000541252362   -0.1300
     10 C10        -0.8989    2.8214   58.2736 C.ar    1  ZINC000541252362    0.1400
     11 N11        -1.8934    3.5551   57.6169 N.am    1  ZINC000541252362   -0.6800
     12 C12        -3.1367    3.0488   57.4978 C.2     1  ZINC000541252362    0.5100
     13 O13        -3.3937    1.9571   57.9597 O.2     1  ZINC000541252362   -0.4900
     14 C14        -4.2075    3.8388   56.7907 C.3     1  ZINC000541252362   -0.0600
     15 C15        -4.1617    3.5381   55.3147 C.2     1  ZINC000541252362    0.0700
     16 C16        -3.0442    3.3042   54.5921 C.2     1  ZINC000541252362   -0.0700
     17 N17        -3.4376    3.0757   53.3019 N.pl3   1  ZINC000541252362   -0.3500
     18 C18        -2.7427    2.7915   52.1608 C.2     1  ZINC000541252362    0.0700
     19 C19        -3.3892    2.6078   50.9897 C.2     1  ZINC000541252362   -0.0500
     20 Cl20       -2.4864    2.2475   49.5513 Cl      1  ZINC000541252362   -0.0200
     21 C21        -4.7899    2.7066   50.9302 C.2     1  ZINC000541252362   -0.0900
     22 C22        -5.4942    2.9889   52.0601 C.2     1  ZINC000541252362    0.0200
     23 Cl23       -7.2248    3.1143   52.0062 Cl      1  ZINC000541252362   -0.0100
     24 C24        -4.8038    3.1784   53.2752 C.2     1  ZINC000541252362    0.2200
     25 N25        -5.2190    3.4526   54.5042 N.2     1  ZINC000541252362   -0.4300
     26 C26        -1.0054    2.5714   59.6332 C.ar    1  ZINC000541252362   -0.0800
     27 N27        -1.0974    1.9709   62.5217 N.2     1  ZINC000541252362   -0.3100
     28 H28        -2.2998    0.8777   65.1296 H       1  ZINC000541252362    0.0800
     29 H29        -0.9386    1.7337   65.8929 H       1  ZINC000541252362    0.0900
     30 H30        -2.1444    2.6417   64.9495 H       1  ZINC000541252362    0.0900
     31 H31         0.8926    0.3608   64.5302 H       1  ZINC000541252362    0.2200
     32 H32         1.8520    0.7995   60.0633 H       1  ZINC000541252362    0.1300
     33 H33         2.0234    1.2410   57.6501 H       1  ZINC000541252362    0.1300
     34 H34         0.2729    2.5310   56.5024 H       1  ZINC000541252362    0.1300
     35 H35        -1.6877    4.4281   57.2474 H       1  ZINC000541252362    0.4100
     36 H36        -5.1845    3.5627   57.1876 H       1  ZINC000541252362    0.1200
     37 H37        -4.0385    4.9038   56.9500 H       1  ZINC000541252362    0.1200
     38 H38        -2.0300    3.2994   54.9634 H       1  ZINC000541252362    0.1900
     39 H39        -1.6661    2.7133   52.1956 H       1  ZINC000541252362    0.1800
     40 H40        -5.3049    2.5597   49.9923 H       1  ZINC000541252362    0.1600
     41 H41        -1.8532    2.9453   60.1879 H       1  ZINC000541252362    0.1500
@<TRIPOS>BOND
     1     1     2    1
     2     1    28    1
     3     1    29    1
     4     1    30    1
     5     2    27    1
     6     2     3    1
     7     3     4    2
     8     3    31    1
     9     4     5    1
    10     5     6    1
    11     5    27    2
    12     6    26   ar
    13     6     7   ar
    14     7     8   ar
    15     7    32    1
    16     8     9   ar
    17     8    33    1
    18     9    10   ar
    19     9    34    1
    20    10    11    1
    21    10    26   ar
    22    11    12   am
    23    11    35    1
    24    12    13    2
    25    12    14    1
    26    14    15    1
    27    14    36    1
    28    14    37    1
    29    15    25    1
    30    15    16    2
    31    16    17    1
    32    16    38    1
    33    17    24    1
    34    17    18    1
    35    18    19    2
    36    18    39    1
    37    19    20    1
    38    19    21    1
    39    21    22    2
    40    21    40    1
    41    22    23    1
    42    22    24    1
    43    24    25    2
    44    26    41    1
@<TRIPOS>SUBSTRUCTURE
     1 ZINC000541252362        1 TEMP              0 ****  ****    0 ROOT


##########                                Name:    ZINC000341804698
##########                DOCK_Rotatable_Bonds:                   7
##########                         Heavy_Atoms:                  24
##########                    Molecular_Weight:             342.318
##########                DOCK_Rotatable_Bonds:                   7
##########                       Formal_Charge:                0.02
##########                     HBond_Acceptors:                   8
##########                        HBond_Donors:                   0
##########                         Heavy_Atoms:                  24
##########                          Grid_Score:          -26.479403
##########                     Grid_vdw_energy:          -25.892693
##########                      Grid_es_energy:           -0.586709
##########           Internal_energy_repulsive:           15.908712

@<TRIPOS>MOLECULE
ZINC000341804698
 41 42 1 0 0
SMALL
USER_CHARGES


@<TRIPOS>ATOM
      1 C1         -8.6686    0.2272   63.6155 C.3     1  ZINC000341804698    0.0300
      2 O2         -9.2929   -0.5767   62.6125 O.3     1  ZINC000341804698   -0.3900
      3 C3        -10.3314    0.0926   61.8943 C.3     1  ZINC000341804698    0.0700
      4 C4        -10.3493   -0.4004   60.4461 C.3     1  ZINC000341804698    0.0400
      5 C5         -9.4944    0.4690   59.6214 C.1     1  ZINC000341804698    0.2200
      6 N6         -8.8347    1.1399   58.9850 N.1     1  ZINC000341804698   -0.4200
      7 C7         -9.8217   -1.8358   60.3896 C.3     1  ZINC000341804698   -0.1200
      8 C8         -9.8086   -2.3139   58.9342 C.3     1  ZINC000341804698    0.1100
      9 N9        -11.1536   -2.1427   58.3681 N.am    1  ZINC000341804698   -0.6000
     10 C10       -11.7897   -3.1776   57.7844 C.2     1  ZINC000341804698    0.5700
     11 O11       -11.2508   -4.2654   57.7225 O.2     1  ZINC000341804698   -0.5200
     12 C12       -13.1430   -2.9898   57.2192 C.ar    1  ZINC000341804698   -0.0900
     13 C13       -13.2985   -2.4871   55.9266 C.ar    1  ZINC000341804698   -0.1100
     14 C14       -14.5631   -2.3129   55.4022 C.ar    1  ZINC000341804698   -0.0800
     15 C15       -15.6780   -2.6350   56.1535 C.ar    1  ZINC000341804698   -0.1700
     16 C16       -15.5333   -3.1353   57.4406 C.ar    1  ZINC000341804698    0.1100
     17 O17       -16.6329   -3.4499   58.1748 O.3     1  ZINC000341804698   -0.3100
     18 C18       -16.7326   -2.8672   59.4760 C.3     1  ZINC000341804698    0.6000
     19 F19       -16.2020   -1.5730   59.4493 F       1  ZINC000341804698   -0.1600
     20 F20       -18.0764   -2.8125   59.8606 F       1  ZINC000341804698   -0.1300
     21 F21       -16.0167   -3.6458   60.3916 F       1  ZINC000341804698   -0.1600
     22 C22       -14.2691   -3.3199   57.9741 C.ar    1  ZINC000341804698   -0.0700
     23 C23       -11.7921   -0.8221   58.4510 C.3     1  ZINC000341804698    0.0900
     24 C24       -11.7829   -0.3608   59.9117 C.3     1  ZINC000341804698   -0.1200
     25 H25        -8.2230    1.1068   63.1509 H       1  ZINC000341804698    0.0400
     26 H26        -9.4144    0.5407   64.3461 H       1  ZINC000341804698    0.0500
     27 H27        -7.8923   -0.3527   64.1147 H       1  ZINC000341804698    0.0900
     28 H28       -11.2923   -0.1203   62.3626 H       1  ZINC000341804698    0.0700
     29 H29       -10.1496    1.1673   61.9101 H       1  ZINC000341804698    0.0600
     30 H30        -8.8091   -1.8672   60.7919 H       1  ZINC000341804698    0.1000
     31 H31       -10.4685   -2.4848   60.9799 H       1  ZINC000341804698    0.0900
     32 H32        -9.0934   -1.7231   58.3619 H       1  ZINC000341804698    0.0700
     33 H33        -9.5281   -3.3665   58.8979 H       1  ZINC000341804698    0.1100
     34 H34       -12.4297   -2.2341   55.3371 H       1  ZINC000341804698    0.1400
     35 H35       -14.6822   -1.9235   54.4019 H       1  ZINC000341804698    0.1400
     36 H36       -16.6653   -2.4966   55.7380 H       1  ZINC000341804698    0.1400
     37 H37       -14.1550   -3.7093   58.9750 H       1  ZINC000341804698    0.1500
     38 H38       -11.2386   -0.1096   57.8392 H       1  ZINC000341804698    0.0800
     39 H39       -12.8204   -0.8904   58.0959 H       1  ZINC000341804698    0.1100
     40 H40       -12.4113   -1.0236   60.5066 H       1  ZINC000341804698    0.1000
     41 H41       -12.1664    0.6577   59.9741 H       1  ZINC000341804698    0.0900
@<TRIPOS>BOND
     1     1     2    1
     2     1    25    1
     3     1    26    1
     4     1    27    1
     5     2     3    1
     6     3     4    1
     7     3    28    1
     8     3    29    1
     9     4    24    1
    10     4     5    1
    11     4     7    1
    12     5     6    3
    13     7     8    1
    14     7    30    1
    15     7    31    1
    16     8     9    1
    17     8    32    1
    18     8    33    1
    19     9    10   am
    20     9    23    1
    21    10    11    2
    22    10    12    1
    23    12    22   ar
    24    12    13   ar
    25    13    14   ar
    26    13    34    1
    27    14    15   ar
    28    14    35    1
    29    15    16   ar
    30    15    36    1
    31    16    17    1
    32    16    22   ar
    33    17    18    1
    34    18    19    1
    35    18    20    1
    36    18    21    1
    37    22    37    1
    38    23    24    1
    39    23    38    1
    40    23    39    1
    41    24    40    1
    42    24    41    1
@<TRIPOS>SUBSTRUCTURE
     1 ZINC000341804698        1 TEMP              0 ****  ****    0 ROOT


##########                                Name:    ZINC000345028113
##########                DOCK_Rotatable_Bonds:                   5
##########                         Heavy_Atoms:                  21
##########                    Molecular_Weight:             331.838
##########                DOCK_Rotatable_Bonds:                   5
##########                       Formal_Charge:         4.47035e-07
##########                     HBond_Acceptors:                   6
##########                        HBond_Donors:                   0
##########                         Heavy_Atoms:                  21
##########                          Grid_Score:          -26.478003
##########                     Grid_vdw_energy:          -26.789665
##########                      Grid_es_energy:            0.311664
##########           Internal_energy_repulsive:           17.477076

@<TRIPOS>MOLECULE
ZINC000345028113
 40 41 1 0 0
SMALL
USER_CHARGES


@<TRIPOS>ATOM
      1 C1         -4.6209    5.4807   51.9965 C.3     1  ZINC000345028113   -0.1700
      2 C2         -4.5840    4.0341   52.4935 C.3     1  ZINC000345028113    0.1400
      3 H3         -4.8148    4.0100   53.5585 H       1  ZINC000345028113    0.1100
      4 C4         -3.1868    3.4495   52.2603 C.3     1  ZINC000345028113   -0.0700
      5 H5         -3.1473    2.4316   52.6482 H       1  ZINC000345028113    0.0900
      6 C6         -2.1443    4.3115   52.9750 C.3     1  ZINC000345028113   -0.1400
      7 S7         -2.8490    3.4343   50.4746 S.3     1  ZINC000345028113   -0.2400
      8 C8         -4.2746    2.5179   49.8184 C.3     1  ZINC000345028113   -0.1100
      9 C9         -5.5617    3.1969   50.2988 C.3     1  ZINC000345028113    0.1000
     10 N10        -5.5734    3.2415   51.7618 N.am    1  ZINC000345028113   -0.6100
     11 C11        -6.5052    2.5452   52.4426 C.2     1  ZINC000345028113    0.5200
     12 O12        -6.5199    2.5764   53.6549 O.2     1  ZINC000345028113   -0.5300
     13 C13        -7.5288    1.7280   51.6974 C.3     1  ZINC000345028113   -0.1400
     14 C14        -8.1148    0.6685   52.6328 C.3     1  ZINC000345028113    0.0700
     15 O15        -9.5108    0.9134   52.8149 O.3     1  ZINC000345028113   -0.3000
     16 C16       -10.2732   -0.1351   53.2251 C.ar    1  ZINC000345028113    0.1300
     17 C17       -10.6411   -1.1207   52.3222 C.ar    1  ZINC000345028113   -0.1700
     18 C18       -11.4156   -2.1861   52.7404 C.ar    1  ZINC000345028113   -0.1100
     19 C19       -11.8243   -2.2701   54.0603 C.ar    1  ZINC000345028113    0.0800
     20 F20       -12.5810   -3.3127   54.4674 F       1  ZINC000345028113   -0.1300
     21 C21       -11.4579   -1.2868   54.9639 C.ar    1  ZINC000345028113   -0.1100
     22 C22       -10.6790   -0.2227   54.5499 C.ar    1  ZINC000345028113   -0.0400
     23 Cl23      -10.2196    1.0100   55.6826 Cl      1  ZINC000345028113   -0.0400
     24 H24        -5.6146    5.8967   52.1624 H       1  ZINC000345028113    0.0600
     25 H25        -3.8842    6.0710   52.5413 H       1  ZINC000345028113    0.0800
     26 H26        -4.3901    5.5049   50.9315 H       1  ZINC000345028113    0.0800
     27 H27        -2.3568    4.3270   54.0440 H       1  ZINC000345028113    0.0800
     28 H28        -1.1513    3.8940   52.8080 H       1  ZINC000345028113    0.0700
     29 H29        -2.1821    5.3276   52.5823 H       1  ZINC000345028113    0.0700
     30 H30        -4.2430    2.5244   48.7288 H       1  ZINC000345028113    0.1200
     31 H31        -4.2466    1.4902   50.1807 H       1  ZINC000345028113    0.0900
     32 H32        -5.6061    4.2119   49.9041 H       1  ZINC000345028113    0.0900
     33 H33        -6.4242    2.6318   49.9457 H       1  ZINC000345028113    0.1000
     34 H34        -8.3266    2.3806   51.3427 H       1  ZINC000345028113    0.1100
     35 H35        -7.0541    1.2391   50.8466 H       1  ZINC000345028113    0.1100
     36 H36        -7.9733   -0.3201   52.1959 H       1  ZINC000345028113    0.0800
     37 H37        -7.6088    0.7153   53.5971 H       1  ZINC000345028113    0.0800
     38 H38       -10.3230   -1.0557   51.2922 H       1  ZINC000345028113    0.1500
     39 H39       -11.7025   -2.9537   52.0369 H       1  ZINC000345028113    0.1500
     40 H40       -11.7777   -1.3535   55.9934 H       1  ZINC000345028113    0.1500
@<TRIPOS>BOND
     1     1     2    1
     2     1    24    1
     3     1    25    1
     4     1    26    1
     5     2     3    1
     6     2    10    1
     7     2     4    1
     8     4     5    1
     9     4     6    1
    10     4     7    1
    11     6    27    1
    12     6    28    1
    13     6    29    1
    14     7     8    1
    15     8     9    1
    16     8    30    1
    17     8    31    1
    18     9    10    1
    19     9    32    1
    20     9    33    1
    21    10    11   am
    22    11    12    2
    23    11    13    1
    24    13    14    1
    25    13    34    1
    26    13    35    1
    27    14    15    1
    28    14    36    1
    29    14    37    1
    30    15    16    1
    31    16    22   ar
    32    16    17   ar
    33    17    18   ar
    34    17    38    1
    35    18    19   ar
    36    18    39    1
    37    19    20    1
    38    19    21   ar
    39    21    22   ar
    40    21    40    1
    41    22    23    1
@<TRIPOS>SUBSTRUCTURE
     1 ZINC000345028113        1 TEMP              0 ****  ****    0 ROOT


##########                                Name:    ZINC000098105561
##########                DOCK_Rotatable_Bonds:                   5
##########                         Heavy_Atoms:                  25
##########                    Molecular_Weight:             368.336
##########                DOCK_Rotatable_Bonds:                   5
##########                       Formal_Charge:         2.98023e-08
##########                     HBond_Acceptors:                   9
##########                        HBond_Donors:                   0
##########                         Heavy_Atoms:                  25
##########                          Grid_Score:          -26.471006
##########                     Grid_vdw_energy:          -25.666094
##########                      Grid_es_energy:           -0.804912
##########           Internal_energy_repulsive:           13.120577

@<TRIPOS>MOLECULE
ZINC000098105561
 36 38 1 0 0
SMALL
USER_CHARGES


@<TRIPOS>ATOM
      1 C1          1.4219    2.1160   50.1151 C.3     1  ZINC000098105561   -0.0800
      2 C2          0.4259    2.7504   51.0514 C.2     1  ZINC000098105561    0.0900
      3 C3          0.7815    3.6115   52.0076 C.2     1  ZINC000098105561   -0.2700
      4 S4         -0.6755    4.1082   52.8645 S.3     1  ZINC000098105561    0.1600
      5 C5         -1.6238    3.1082   51.8528 C.2     1  ZINC000098105561    0.2500
      6 N6         -3.0020    2.9684   51.9395 N.am    1  ZINC000098105561   -0.5200
      7 C7         -3.6438    2.8357   53.2497 C.3     1  ZINC000098105561    0.0500
      8 C8         -4.0860    4.2149   53.7429 C.3     1  ZINC000098105561    0.4400
      9 F9         -5.4830    4.2638   53.8003 F       1  ZINC000098105561   -0.1700
     10 F10        -3.5586    4.4454   55.0180 F       1  ZINC000098105561   -0.1700
     11 F11        -3.6208    5.1966   52.8614 F       1  ZINC000098105561   -0.1700
     12 C12        -3.7498    2.9546   50.8182 C.2     1  ZINC000098105561    0.5800
     13 O13        -3.2174    3.0645   49.7314 O.2     1  ZINC000098105561   -0.4100
     14 C14        -5.2204    2.8053   50.9107 C.2     1  ZINC000098105561    0.0800
     15 C15        -5.9848    3.9242   50.9605 C.2     1  ZINC000098105561   -0.2000
     16 C16        -7.4449    3.7659   51.0691 C.2     1  ZINC000098105561    0.4200
     17 O17        -8.2101    4.6980   50.8949 O.2     1  ZINC000098105561   -0.4300
     18 C18        -7.9265    2.4099   51.4015 C.ar    1  ZINC000098105561   -0.2200
     19 C19        -9.2466    2.1788   51.7819 C.ar    1  ZINC000098105561   -0.0300
     20 C20        -9.6499    0.8974   52.0888 C.ar    1  ZINC000098105561   -0.1400
     21 C21        -8.7473   -0.1543   52.0202 C.ar    1  ZINC000098105561   -0.0500
     22 C22        -7.4394    0.0615   51.6430 C.ar    1  ZINC000098105561   -0.1400
     23 C23        -7.0105    1.3459   51.3248 C.ar    1  ZINC000098105561    0.1400
     24 O24        -5.7397    1.5703   50.9359 O.3     1  ZINC000098105561   -0.2300
     25 N25        -0.8688    2.5039   50.9889 N.2     1  ZINC000098105561   -0.4600
     26 H26         1.5443    2.7457   49.2339 H       1  ZINC000098105561    0.0800
     27 H27         2.3809    2.0103   50.6222 H       1  ZINC000098105561    0.0800
     28 H28         1.0608    1.1332   49.8120 H       1  ZINC000098105561    0.0800
     29 H29         1.7866    3.9449   52.2191 H       1  ZINC000098105561    0.1900
     30 H30        -4.5136    2.1845   53.1639 H       1  ZINC000098105561    0.1700
     31 H31        -2.9365    2.4058   53.9589 H       1  ZINC000098105561    0.1400
     32 H32        -5.5349    4.9052   50.9220 H       1  ZINC000098105561    0.1800
     33 H33        -9.9485    2.9978   51.8362 H       1  ZINC000098105561    0.1400
     34 H34       -10.6720    0.7110   52.3841 H       1  ZINC000098105561    0.1400
     35 H35        -9.0735   -1.1541   52.2657 H       1  ZINC000098105561    0.1400
     36 H36        -6.7477   -0.7665   51.5940 H       1  ZINC000098105561    0.1400
@<TRIPOS>BOND
     1     1     2    1
     2     1    26    1
     3     1    27    1
     4     1    28    1
     5     2    25    1
     6     2     3    2
     7     3     4    1
     8     3    29    1
     9     4     5    1
    10     5     6    1
    11     5    25    2
    12     6     7    1
    13     6    12   am
    14     7     8    1
    15     7    30    1
    16     7    31    1
    17     8     9    1
    18     8    10    1
    19     8    11    1
    20    12    13    2
    21    12    14    1
    22    14    24    1
    23    14    15    2
    24    15    16    1
    25    15    32    1
    26    16    17    2
    27    16    18    1
    28    18    23   ar
    29    18    19   ar
    30    19    20   ar
    31    19    33    1
    32    20    21   ar
    33    20    34    1
    34    21    22   ar
    35    21    35    1
    36    22    23   ar
    37    22    36    1
    38    23    24    1
@<TRIPOS>SUBSTRUCTURE
     1 ZINC000098105561        1 TEMP              0 ****  ****    0 ROOT


##########                                Name:    ZINC000518234532
##########                DOCK_Rotatable_Bonds:                   5
##########                         Heavy_Atoms:                  25
##########                    Molecular_Weight:             408.267
##########                DOCK_Rotatable_Bonds:                   5
##########                       Formal_Charge:         -0.00999981
##########                     HBond_Acceptors:                   5
##########                        HBond_Donors:                   1
##########                         Heavy_Atoms:                  25
##########                          Grid_Score:          -26.467398
##########                     Grid_vdw_energy:          -25.901318
##########                      Grid_es_energy:           -0.566080
##########           Internal_energy_repulsive:           17.484098

@<TRIPOS>MOLECULE
ZINC000518234532
 44 46 1 0 0
SMALL
USER_CHARGES


@<TRIPOS>ATOM
      1 C1         -0.1673    5.4636   54.9605 C.3     1  ZINC000518234532   -0.1600
      2 C2         -0.3465    3.9505   54.8209 C.3     1  ZINC000518234532    0.1800
      3 H3          0.6132    3.4557   54.9698 H       1  ZINC000518234532    0.1100
      4 N4         -1.3012    3.4770   55.8262 N.am    1  ZINC000518234532   -0.7300
      5 C5         -0.8950    2.6360   56.7979 C.2     1  ZINC000518234532    0.5200
      6 O6          0.2612    2.2723   56.8408 O.2     1  ZINC000518234532   -0.5200
      7 C7         -1.8775    2.1475   57.8309 C.3     1  ZINC000518234532   -0.0700
      8 H8         -2.0356    1.0765   57.7042 H       1  ZINC000518234532    0.1100
      9 C9         -3.2075    2.8835   57.6580 C.3     1  ZINC000518234532   -0.1400
     10 C10        -1.3311    2.4148   59.2097 C.ar    1  ZINC000518234532   -0.1000
     11 C11        -1.3195    1.4078   60.1558 C.ar    1  ZINC000518234532   -0.0600
     12 C12        -0.8183    1.6527   61.4209 C.ar    1  ZINC000518234532   -0.1300
     13 C13        -0.3287    2.9052   61.7410 C.ar    1  ZINC000518234532   -0.0900
     14 C14        -0.3398    3.9142   60.7964 C.ar    1  ZINC000518234532   -0.1600
     15 C15        -0.8353    3.6682   59.5274 C.ar    1  ZINC000518234532    0.1000
     16 F16        -0.8466    4.6537   58.6033 F       1  ZINC000518234532   -0.1400
     17 C17        -0.8680    3.6314   53.4435 C.ar    1  ZINC000518234532   -0.0600
     18 C18        -2.2152    3.7669   53.1673 C.ar    1  ZINC000518234532   -0.1100
     19 C19        -2.6979    3.4747   51.9003 C.ar    1  ZINC000518234532    0.0800
     20 C20        -1.8231    3.0476   50.9086 C.ar    1  ZINC000518234532    0.0600
     21 C21        -0.4721    2.9123   51.1918 C.ar    1  ZINC000518234532   -0.0800
     22 C22         0.0036    3.2088   52.4559 C.ar    1  ZINC000518234532   -0.0800
     23 Br23        1.8462    3.0244   52.8385 Br      1  ZINC000518234532   -0.0300
     24 O24        -2.2748    2.7632   49.6566 O.3     1  ZINC000518234532   -0.3000
     25 C25        -3.6836    2.5522   49.5131 C.3     1  ZINC000518234532    0.0200
     26 C26        -4.4163    3.6695   50.2682 C.3     1  ZINC000518234532    0.0200
     27 O27        -4.0283    3.6091   51.6450 O.3     1  ZINC000518234532   -0.3000
     28 H28         0.2099    5.6944   55.9568 H       1  ZINC000518234532    0.0700
     29 H29         0.5430    5.8158   54.2125 H       1  ZINC000518234532    0.0700
     30 H30        -1.1270    5.9584   54.8116 H       1  ZINC000518234532    0.0600
     31 H31        -2.2257    3.7689   55.7926 H       1  ZINC000518234532    0.4000
     32 H32        -3.6028    2.6902   56.6607 H       1  ZINC000518234532    0.0700
     33 H33        -3.9182    2.5303   58.4052 H       1  ZINC000518234532    0.0700
     34 H34        -3.0494    3.9545   57.7848 H       1  ZINC000518234532    0.0700
     35 H35        -1.7024    0.4290   59.9071 H       1  ZINC000518234532    0.1300
     36 H36        -0.8096    0.8651   62.1597 H       1  ZINC000518234532    0.1300
     37 H37         0.0622    3.0955   62.7297 H       1  ZINC000518234532    0.1300
     38 H38         0.0421    4.8929   61.0470 H       1  ZINC000518234532    0.1400
     39 H39        -2.8931    4.1004   53.9391 H       1  ZINC000518234532    0.1400
     40 H40         0.2095    2.5785   50.4235 H       1  ZINC000518234532    0.1500
     41 H41        -3.9543    2.5831   48.4576 H       1  ZINC000518234532    0.1300
     42 H42        -3.9551    1.5844   49.9345 H       1  ZINC000518234532    0.0800
     43 H43        -4.1401    4.6377   49.8507 H       1  ZINC000518234532    0.0800
     44 H44        -5.4933    3.5256   50.1830 H       1  ZINC000518234532    0.1300
@<TRIPOS>BOND
     1     1     2    1
     2     1    28    1
     3     1    29    1
     4     1    30    1
     5     2     3    1
     6     2     4    1
     7     2    17    1
     8     4     5   am
     9     4    31    1
    10     5     6    2
    11     5     7    1
    12     7     8    1
    13     7     9    1
    14     7    10    1
    15     9    32    1
    16     9    33    1
    17     9    34    1
    18    10    15   ar
    19    10    11   ar
    20    11    12   ar
    21    11    35    1
    22    12    13   ar
    23    12    36    1
    24    13    14   ar
    25    13    37    1
    26    14    15   ar
    27    14    38    1
    28    15    16    1
    29    17    22   ar
    30    17    18   ar
    31    18    19   ar
    32    18    39    1
    33    19    27    1
    34    19    20   ar
    35    20    21   ar
    36    20    24    1
    37    21    22   ar
    38    21    40    1
    39    22    23    1
    40    24    25    1
    41    25    26    1
    42    25    41    1
    43    25    42    1
    44    26    27    1
    45    26    43    1
    46    26    44    1
@<TRIPOS>SUBSTRUCTURE
     1 ZINC000518234532        1 TEMP              0 ****  ****    0 ROOT


##########                                Name:    ZINC000055987960
##########                DOCK_Rotatable_Bonds:                   6
##########                         Heavy_Atoms:                  28
##########                    Molecular_Weight:             404.868
##########                DOCK_Rotatable_Bonds:                   6
##########                       Formal_Charge:          0.00999941
##########                     HBond_Acceptors:                   7
##########                        HBond_Donors:                   1
##########                         Heavy_Atoms:                  28
##########                          Grid_Score:          -26.460024
##########                     Grid_vdw_energy:          -24.726376
##########                      Grid_es_energy:           -1.733647
##########           Internal_energy_repulsive:           14.211612

@<TRIPOS>MOLECULE
ZINC000055987960
 50 52 1 0 0
SMALL
USER_CHARGES


@<TRIPOS>ATOM
      1 C1         -2.5064    3.8656   53.5488 C.3     1  ZINC000055987960   -0.1800
      2 C2         -1.9847    4.6523   54.7529 C.3     1  ZINC000055987960    0.0700
      3 H3         -1.0830    5.1953   54.4699 H       1  ZINC000055987960    0.1200
      4 C4         -3.0555    5.6456   55.2184 C.3     1  ZINC000055987960    0.0800
      5 N5         -4.1882    4.8833   55.7675 N.am    1  ZINC000055987960   -0.6100
      6 C6         -5.4500    5.1263   55.3611 C.2     1  ZINC000055987960    0.5700
      7 O7         -5.6658    5.9861   54.5289 O.2     1  ZINC000055987960   -0.5300
      8 C8         -6.5700    4.3487   55.9263 C.ar    1  ZINC000055987960   -0.1500
      9 C9         -7.2454    3.4165   55.1340 C.ar    1  ZINC000055987960   -0.0700
     10 C10        -8.2895    2.6925   55.6644 C.ar    1  ZINC000055987960   -0.1500
     11 C11        -8.6723    2.8883   56.9877 C.ar    1  ZINC000055987960    0.1700
     12 N12        -9.7298    2.1531   57.5218 N.am    1  ZINC000055987960   -0.6700
     13 C13        -9.4996    0.9460   58.0754 C.2     1  ZINC000055987960    0.5200
     14 O14        -8.3726    0.4992   58.1088 O.2     1  ZINC000055987960   -0.5000
     15 C15       -10.6425    0.1513   58.6527 C.3     1  ZINC000055987960   -0.1100
     16 C16       -11.0309   -0.9417   57.6907 C.ar    1  ZINC000055987960   -0.1000
     17 C17       -11.7017   -0.6287   56.5211 C.ar    1  ZINC000055987960    0.1300
     18 F18       -12.0087    0.6569   56.2414 F       1  ZINC000055987960   -0.1300
     19 C19       -12.0577   -1.6341   55.6377 C.ar    1  ZINC000055987960   -0.1500
     20 C20       -11.7432   -2.9487   55.9240 C.ar    1  ZINC000055987960   -0.0700
     21 C21       -11.0731   -3.2615   57.0921 C.ar    1  ZINC000055987960   -0.1200
     22 C22       -10.7121   -2.2579   57.9733 C.ar    1  ZINC000055987960    0.0000
     23 Cl23       -9.8703   -2.6516   59.4396 Cl      1  ZINC000055987960   -0.0500
     24 C24        -8.0020    3.8156   57.7792 C.ar    1  ZINC000055987960   -0.1200
     25 C25        -6.9538    4.5391   57.2565 C.ar    1  ZINC000055987960   -0.0500
     26 C26        -3.9024    3.8477   56.7730 C.3     1  ZINC000055987960    0.0600
     27 C27        -2.7903    2.9420   56.2317 C.3     1  ZINC000055987960    0.0700
     28 H28        -3.1649    2.3754   55.3792 H       1  ZINC000055987960    0.0700
     29 C29        -2.3383    1.9761   57.3288 C.3     1  ZINC000055987960   -0.1500
     30 O30        -1.6835    3.7492   55.8193 O.3     1  ZINC000055987960   -0.3700
     31 H31        -3.4081    3.3229   53.8324 H       1  ZINC000055987960    0.0600
     32 H32        -2.7375    4.5550   52.7367 H       1  ZINC000055987960    0.0700
     33 H33        -1.7452    3.1583   53.2195 H       1  ZINC000055987960    0.0700
     34 H34        -2.6425    6.2961   55.9894 H       1  ZINC000055987960    0.0800
     35 H35        -3.3922    6.2455   54.3730 H       1  ZINC000055987960    0.1000
     36 H36        -6.9490    3.2643   54.1067 H       1  ZINC000055987960    0.1400
     37 H37        -8.8121    1.9722   55.0526 H       1  ZINC000055987960    0.1300
     38 H38       -10.6312    2.5103   57.4950 H       1  ZINC000055987960    0.4200
     39 H39       -10.3352   -0.2910   59.6004 H       1  ZINC000055987960    0.1200
     40 H40       -11.4954    0.8094   58.8186 H       1  ZINC000055987960    0.1200
     41 H41       -12.5814   -1.3905   54.7251 H       1  ZINC000055987960    0.1500
     42 H42       -12.0212   -3.7325   55.2350 H       1  ZINC000055987960    0.1500
     43 H43       -10.8281   -4.2893   57.3152 H       1  ZINC000055987960    0.1400
     44 H44        -8.3020    3.9655   58.8058 H       1  ZINC000055987960    0.1500
     45 H45        -6.4338    5.2588   57.8714 H       1  ZINC000055987960    0.1300
     46 H46        -3.5746    4.3172   57.7005 H       1  ZINC000055987960    0.0800
     47 H47        -4.7997    3.2571   56.9571 H       1  ZINC000055987960    0.1100
     48 H48        -3.1832    1.3642   57.6447 H       1  ZINC000055987960    0.0700
     49 H49        -1.5477    1.3326   56.9432 H       1  ZINC000055987960    0.0700
     50 H50        -1.9623    2.5435   58.1801 H       1  ZINC000055987960    0.0700
@<TRIPOS>BOND
     1     1     2    1
     2     1    31    1
     3     1    32    1
     4     1    33    1
     5     2     3    1
     6     2    30    1
     7     2     4    1
     8     4     5    1
     9     4    34    1
    10     4    35    1
    11     5     6   am
    12     5    26    1
    13     6     7    2
    14     6     8    1
    15     8    25   ar
    16     8     9   ar
    17     9    10   ar
    18     9    36    1
    19    10    11   ar
    20    10    37    1
    21    11    12    1
    22    11    24   ar
    23    12    13   am
    24    12    38    1
    25    13    14    2
    26    13    15    1
    27    15    16    1
    28    15    39    1
    29    15    40    1
    30    16    22   ar
    31    16    17   ar
    32    17    18    1
    33    17    19   ar
    34    19    20   ar
    35    19    41    1
    36    20    21   ar
    37    20    42    1
    38    21    22   ar
    39    21    43    1
    40    22    23    1
    41    24    25   ar
    42    24    44    1
    43    25    45    1
    44    26    27    1
    45    26    46    1
    46    26    47    1
    47    27    28    1
    48    27    29    1
    49    27    30    1
    50    29    48    1
    51    29    49    1
    52    29    50    1
@<TRIPOS>SUBSTRUCTURE
     1 ZINC000055987960        1 TEMP              0 ****  ****    0 ROOT


##########                                Name:    ZINC000885154703
##########                DOCK_Rotatable_Bonds:                   5
##########                         Heavy_Atoms:                  24
##########                    Molecular_Weight:             396.259
##########                DOCK_Rotatable_Bonds:                   5
##########                       Formal_Charge:          -0.0099998
##########                     HBond_Acceptors:                   6
##########                        HBond_Donors:                   1
##########                         Heavy_Atoms:                  24
##########                          Grid_Score:          -26.400818
##########                     Grid_vdw_energy:          -24.696514
##########                      Grid_es_energy:           -1.704303
##########           Internal_energy_repulsive:            8.476960

@<TRIPOS>MOLECULE
ZINC000885154703
 43 45 1 0 0
SMALL
USER_CHARGES


@<TRIPOS>ATOM
      1 C1        -11.3108   -1.8580   52.7102 C.3     1  ZINC000885154703   -0.1500
      2 C2        -11.5991   -2.4214   54.1033 C.3     1  ZINC000885154703   -0.0300
      3 C3        -11.8534   -1.2864   55.0614 C.2     1  ZINC000885154703    0.1700
      4 N4        -13.0064   -0.7513   55.3312 N.2     1  ZINC000885154703   -0.3800
      5 O5        -12.8758    0.1404   56.1432 O.3     1  ZINC000885154703    0.0800
      6 C6        -11.5879    0.2625   56.4786 C.2     1  ZINC000885154703    0.1800
      7 C7        -11.0049    1.2506   57.4557 C.3     1  ZINC000885154703    0.0000
      8 H8        -11.3865    2.2502   57.2480 H       1  ZINC000885154703    0.1300
      9 C9         -9.4652    1.2425   57.3602 C.3     1  ZINC000885154703   -0.1200
     10 C10        -8.9929    1.4314   58.8232 C.3     1  ZINC000885154703   -0.1300
     11 C11       -10.0208    0.5951   59.6250 C.3     1  ZINC000885154703    0.1400
     12 H12        -9.7578   -0.4623   59.5960 H       1  ZINC000885154703    0.1000
     13 N13       -10.0958    1.0659   61.0102 N.am    1  ZINC000885154703   -0.7100
     14 C14       -10.5474    0.2436   61.9779 C.2     1  ZINC000885154703    0.5700
     15 O15       -10.8939   -0.8883   61.7010 O.2     1  ZINC000885154703   -0.5100
     16 C16       -10.6213    0.7177   63.3748 C.ar    1  ZINC000885154703   -0.1600
     17 C17       -11.8121    1.2563   63.8717 C.ar    1  ZINC000885154703    0.1500
     18 F18       -12.8999    1.3451   63.0755 F       1  ZINC000885154703   -0.1200
     19 C19       -11.8731    1.6976   65.1813 C.ar    1  ZINC000885154703   -0.1500
     20 C20       -10.7607    1.6071   65.9963 C.ar    1  ZINC000885154703   -0.0400
     21 C21        -9.5782    1.0743   65.5094 C.ar    1  ZINC000885154703   -0.1100
     22 Br22       -8.0635    0.9563   66.6353 Br      1  ZINC000885154703   -0.0300
     23 C23        -9.5040    0.6249   64.2074 C.ar    1  ZINC000885154703    0.0100
     24 C24        -8.2163    0.0454   63.6810 C.3     1  ZINC000885154703   -0.1300
     25 C25       -11.3592    0.8397   58.8956 C.3     1  ZINC000885154703   -0.1300
     26 N26       -10.9293   -0.6451   55.7988 N.2     1  ZINC000885154703   -0.4800
     27 H27       -12.1684   -1.2788   52.3679 H       1  ZINC000885154703    0.0600
     28 H28       -10.4318   -1.2149   52.7532 H       1  ZINC000885154703    0.0600
     29 H29       -11.1268   -2.6789   52.0172 H       1  ZINC000885154703    0.0700
     30 H30       -12.4780   -3.0645   54.0603 H       1  ZINC000885154703    0.1000
     31 H31       -10.7414   -3.0006   54.4456 H       1  ZINC000885154703    0.0900
     32 H32        -9.1125    0.2895   56.9655 H       1  ZINC000885154703    0.0800
     33 H33        -9.1172    2.0666   56.7375 H       1  ZINC000885154703    0.0900
     34 H34        -7.9855    1.0377   58.9578 H       1  ZINC000885154703    0.0800
     35 H35        -9.0400    2.4815   59.1117 H       1  ZINC000885154703    0.0800
     36 H36        -9.8205    1.9694   61.2309 H       1  ZINC000885154703    0.4000
     37 H37       -12.7918    2.1140   65.5675 H       1  ZINC000885154703    0.1500
     38 H38       -10.8135    1.9536   67.0178 H       1  ZINC000885154703    0.1500
     39 H39        -8.2017   -1.0297   63.8601 H       1  ZINC000885154703    0.0900
     40 H40        -8.1428    0.2364   62.6104 H       1  ZINC000885154703    0.0800
     41 H41        -7.3731    0.5103   64.1917 H       1  ZINC000885154703    0.0900
     42 H42       -11.9119    1.6398   59.3880 H       1  ZINC000885154703    0.0900
     43 H43       -11.9526   -0.0745   58.8876 H       1  ZINC000885154703    0.0800
@<TRIPOS>BOND
     1     1     2    1
     2     1    27    1
     3     1    28    1
     4     1    29    1
     5     2     3    1
     6     2    30    1
     7     2    31    1
     8     3    26    1
     9     3     4    2
    10     4     5    1
    11     5     6    1
    12     6     7    1
    13     6    26    2
    14     7     8    1
    15     7    25    1
    16     7     9    1
    17     9    10    1
    18     9    32    1
    19     9    33    1
    20    10    11    1
    21    10    34    1
    22    10    35    1
    23    11    12    1
    24    11    13    1
    25    11    25    1
    26    13    14   am
    27    13    36    1
    28    14    15    2
    29    14    16    1
    30    16    23   ar
    31    16    17   ar
    32    17    18    1
    33    17    19   ar
    34    19    20   ar
    35    19    37    1
    36    20    21   ar
    37    20    38    1
    38    21    22    1
    39    21    23   ar
    40    23    24    1
    41    24    39    1
    42    24    40    1
    43    24    41    1
    44    25    42    1
    45    25    43    1
@<TRIPOS>SUBSTRUCTURE
     1 ZINC000885154703        1 TEMP              0 ****  ****    0 ROOT


##########                                Name:    ZINC000443933644
##########                DOCK_Rotatable_Bonds:                   8
##########                         Heavy_Atoms:                  27
##########                    Molecular_Weight:             402.438
##########                DOCK_Rotatable_Bonds:                   8
##########                       Formal_Charge:          0.00999922
##########                     HBond_Acceptors:                   9
##########                        HBond_Donors:                   2
##########                         Heavy_Atoms:                  27
##########                          Grid_Score:          -26.378794
##########                     Grid_vdw_energy:          -25.779593
##########                      Grid_es_energy:           -0.599200
##########           Internal_energy_repulsive:           47.016201

@<TRIPOS>MOLECULE
ZINC000443933644
 48 49 1 0 0
SMALL
USER_CHARGES


@<TRIPOS>ATOM
      1 C1        -10.2732    5.1297   48.0982 C.3     1  ZINC000443933644   -0.1500
      2 C2         -9.8198    4.2842   49.2901 C.3     1  ZINC000443933644   -0.1400
      3 C3         -9.5325    5.1976   50.4834 C.3     1  ZINC000443933644   -0.1000
      4 H4        -10.4377    5.7433   50.7495 H       1  ZINC000443933644    0.1000
      5 C5         -8.4291    6.1902   50.1118 C.3     1  ZINC000443933644   -0.1700
      6 C6         -9.0778    4.3522   51.6748 C.3     1  ZINC000443933644    0.1200
      7 H7         -8.1399    4.7480   52.0644 H       1  ZINC000443933644    0.1300
      8 N8         -8.8811    2.9660   51.2433 N.am    1  ZINC000443933644   -1.1100
      9 S9         -7.3904    2.4635   50.7258 S.o2    1  ZINC000443933644    2.6900
     10 O10        -7.4867    1.0595   50.5278 O.2     1  ZINC000443933644   -0.9400
     11 O11        -6.9950    3.3672   49.7031 O.2     1  ZINC000443933644   -0.9400
     12 C12        -6.2668    2.7015   52.0621 C.ar    1  ZINC000443933644   -0.7000
     13 C13        -4.8817    2.6300   51.8371 C.ar    1  ZINC000443933644    0.0500
     14 C14        -4.3645    2.3704   50.5560 C.ar    1  ZINC000443933644   -0.1400
     15 C15        -3.0172    2.3083   50.3735 C.ar    1  ZINC000443933644   -0.0800
     16 C16        -2.1395    2.4983   51.4391 C.ar    1  ZINC000443933644   -0.1200
     17 C17        -2.6050    2.7512   52.6934 C.ar    1  ZINC000443933644   -0.0900
     18 C18        -3.9885    2.8231   52.9198 C.ar    1  ZINC000443933644   -0.0900
     19 C19        -4.5076    3.0833   54.2058 C.ar    1  ZINC000443933644    0.2300
     20 N20        -3.6459    3.2763   55.2873 N.am    1  ZINC000443933644   -0.6700
     21 C21        -3.6197    4.4635   55.9245 C.2     1  ZINC000443933644    0.5100
     22 C22        -2.6896    4.6718   57.0918 C.3     1  ZINC000443933644   -0.1700
     23 O23        -4.3446    5.3644   55.5584 O.2     1  ZINC000443933644   -0.5100
     24 C24        -5.8727    3.1455   54.3847 C.ar    1  ZINC000443933644   -0.1600
     25 C25        -6.7400    2.9605   53.3123 C.ar    1  ZINC000443933644    0.0400
     26 C26       -10.1451    4.3987   52.7701 C.3     1  ZINC000443933644    0.4300
     27 F27       -10.0014    3.2883   53.6088 F       1  ZINC000443933644   -0.1700
     28 F28        -9.9945    5.5710   53.5185 F       1  ZINC000443933644   -0.1600
     29 F29       -11.4154    4.3794   52.1843 F       1  ZINC000443933644   -0.1700
     30 H30       -11.1781    5.6762   48.3637 H       1  ZINC000443933644    0.0500
     31 H31        -9.4864    5.8363   47.8338 H       1  ZINC000443933644    0.0600
     32 H32       -10.4778    4.4790   47.2480 H       1  ZINC000443933644    0.0600
     33 H33       -10.6065    3.5777   49.5545 H       1  ZINC000443933644    0.0700
     34 H34        -8.9149    3.7377   49.0246 H       1  ZINC000443933644    0.0900
     35 H35        -8.7955    6.8694   49.3419 H       1  ZINC000443933644    0.0700
     36 H36        -8.1425    6.7622   50.9943 H       1  ZINC000443933644    0.0600
     37 H37        -7.5632    5.6465   49.7343 H       1  ZINC000443933644    0.0700
     38 H38        -9.6240    2.3426   51.2607 H       1  ZINC000443933644    0.4300
     39 H39        -5.0328    2.2207   49.7209 H       1  ZINC000443933644    0.1400
     40 H40        -2.6224    2.1084   49.3883 H       1  ZINC000443933644    0.1300
     41 H41        -1.0747    2.4439   51.2676 H       1  ZINC000443933644    0.1300
     42 H42        -1.9133    2.8957   53.5100 H       1  ZINC000443933644    0.1300
     43 H43        -3.0660    2.5558   55.5798 H       1  ZINC000443933644    0.4200
     44 H44        -2.1222    3.7587   57.2717 H       1  ZINC000443933644    0.0800
     45 H45        -2.0029    5.4882   56.8680 H       1  ZINC000443933644    0.1000
     46 H46        -3.2710    4.9193   57.9799 H       1  ZINC000443933644    0.1000
     47 H47        -6.2737    3.3444   55.3676 H       1  ZINC000443933644    0.1500
     48 H48        -7.8062    3.0136   53.4762 H       1  ZINC000443933644    0.1500
@<TRIPOS>BOND
     1     1     2    1
     2     1    30    1
     3     1    31    1
     4     1    32    1
     5     2     3    1
     6     2    33    1
     7     2    34    1
     8     3     4    1
     9     3     5    1
    10     3     6    1
    11     5    35    1
    12     5    36    1
    13     5    37    1
    14     6     7    1
    15     6     8    1
    16     6    26    1
    17     8     9   am
    18     8    38    1
    19     9    10    2
    20     9    11    2
    21     9    12    1
    22    12    25   ar
    23    12    13   ar
    24    13    18   ar
    25    13    14   ar
    26    14    15   ar
    27    14    39    1
    28    15    16   ar
    29    15    40    1
    30    16    17   ar
    31    16    41    1
    32    17    18   ar
    33    17    42    1
    34    18    19   ar
    35    19    20    1
    36    19    24   ar
    37    20    21   am
    38    20    43    1
    39    21    22    1
    40    21    23    2
    41    22    44    1
    42    22    45    1
    43    22    46    1
    44    24    25   ar
    45    24    47    1
    46    25    48    1
    47    26    27    1
    48    26    28    1
    49    26    29    1
@<TRIPOS>SUBSTRUCTURE
     1 ZINC000443933644        1 TEMP              0 ****  ****    0 ROOT


##########                                Name:    ZINC000478980774
##########                DOCK_Rotatable_Bonds:                   4
##########                         Heavy_Atoms:                  26
##########                    Molecular_Weight:             401.818
##########                DOCK_Rotatable_Bonds:                   4
##########                       Formal_Charge:          -0.0100001
##########                     HBond_Acceptors:                   9
##########                        HBond_Donors:                   1
##########                         Heavy_Atoms:                  26
##########                          Grid_Score:          -26.343973
##########                     Grid_vdw_energy:          -26.312681
##########                      Grid_es_energy:           -0.031293
##########           Internal_energy_repulsive:            5.974337

@<TRIPOS>MOLECULE
ZINC000478980774
 40 42 1 0 0
SMALL
USER_CHARGES


@<TRIPOS>ATOM
      1 C1         -7.6825    3.5681   49.9738 C.3     1  ZINC000478980774   -0.1400
      2 C2         -7.5685    3.1707   51.4468 C.3     1  ZINC000478980774   -0.4600
      3 H3         -7.8109    4.0283   52.0745 H       1  ZINC000478980774    0.1500
      4 C4         -8.5287    2.0467   51.7396 C.2     1  ZINC000478980774    0.5400
      5 O5         -8.2639    0.9160   51.3893 O.2     1  ZINC000478980774   -0.5000
      6 N6         -9.6818    2.2978   52.3907 N.am    1  ZINC000478980774   -0.6600
      7 C7        -10.5744    1.2529   52.6629 C.ar    1  ZINC000478980774    0.1600
      8 C8        -11.6902    1.0659   51.8588 C.ar    1  ZINC000478980774   -0.1200
      9 C9        -12.5720    0.0358   52.1264 C.ar    1  ZINC000478980774   -0.0600
     10 C10       -12.3452   -0.8127   53.1975 C.ar    1  ZINC000478980774    0.0100
     11 O11       -13.0500   -1.8843   53.6672 O.3     1  ZINC000478980774   -0.2900
     12 C12       -12.1371   -2.6007   54.5197 C.3     1  ZINC000478980774    0.5700
     13 F13       -12.8195   -3.1765   55.5968 F       1  ZINC000478980774   -0.1100
     14 F14       -11.4523   -3.5806   53.7931 F       1  ZINC000478980774   -0.1500
     15 O15       -11.2298   -1.5827   54.9817 O.3     1  ZINC000478980774   -0.2800
     16 C16       -11.2259   -0.6276   54.0063 C.ar    1  ZINC000478980774    0.0500
     17 C17       -10.3401    0.4008   53.7340 C.ar    1  ZINC000478980774   -0.0900
     18 S18        -5.8742    2.6250   51.7965 S.o     1  ZINC000478980774    1.3000
     19 O19        -5.5694    1.4873   51.0017 O.2     1  ZINC000478980774   -0.7800
     20 C20        -4.8707    4.0327   51.2472 C.3     1  ZINC000478980774   -0.4300
     21 C21        -3.4122    3.7293   51.4755 C.ar    1  ZINC000478980774   -0.0600
     22 C22        -2.5916    3.4345   50.4034 C.ar    1  ZINC000478980774   -0.1100
     23 C23        -1.2535    3.1561   50.6126 C.ar    1  ZINC000478980774   -0.1100
     24 C24        -0.7360    3.1719   51.8942 C.ar    1  ZINC000478980774   -0.1100
     25 C25        -1.5559    3.4667   52.9674 C.ar    1  ZINC000478980774   -0.1100
     26 C26        -2.8933    3.7514   52.7580 C.ar    1  ZINC000478980774   -0.0300
     27 Cl27       -3.9236    4.1217   54.1053 Cl      1  ZINC000478980774   -0.0600
     28 H28        -6.9880    4.3811   49.7621 H       1  ZINC000478980774    0.0800
     29 H29        -7.4402    2.7105   49.3463 H       1  ZINC000478980774    0.0700
     30 H30        -8.7006    3.8959   49.7637 H       1  ZINC000478980774    0.0700
     31 H31        -9.8936    3.2020   52.6707 H       1  ZINC000478980774    0.4200
     32 H32       -11.8696    1.7263   51.0232 H       1  ZINC000478980774    0.1500
     33 H33       -13.4396   -0.1076   51.4995 H       1  ZINC000478980774    0.1500
     34 H34        -9.4693    0.5429   54.3567 H       1  ZINC000478980774    0.1600
     35 H35        -5.0431    4.2096   50.1856 H       1  ZINC000478980774    0.1100
     36 H36        -5.1499    4.9210   51.8136 H       1  ZINC000478980774    0.1300
     37 H37        -2.9956    3.4212   49.4019 H       1  ZINC000478980774    0.1400
     38 H38        -0.6126    2.9256   49.7744 H       1  ZINC000478980774    0.1300
     39 H39         0.3091    2.9536   52.0571 H       1  ZINC000478980774    0.1300
     40 H40        -1.1513    3.4792   53.9687 H       1  ZINC000478980774    0.1300
@<TRIPOS>BOND
     1     1     2    1
     2     1    28    1
     3     1    29    1
     4     1    30    1
     5     2     3    1
     6     2     4    1
     7     2    18    1
     8     4     5    2
     9     4     6   am
    10     6     7    1
    11     6    31    1
    12     7    17   ar
    13     7     8   ar
    14     8     9   ar
    15     8    32    1
    16     9    10   ar
    17     9    33    1
    18    10    16   ar
    19    10    11    1
    20    11    12    1
    21    12    13    1
    22    12    14    1
    23    12    15    1
    24    15    16    1
    25    16    17   ar
    26    17    34    1
    27    18    19    2
    28    18    20    1
    29    20    21    1
    30    20    35    1
    31    20    36    1
    32    21    26   ar
    33    21    22   ar
    34    22    23   ar
    35    22    37    1
    36    23    24   ar
    37    23    38    1
    38    24    25   ar
    39    24    39    1
    40    25    26   ar
    41    25    40    1
    42    26    27    1
@<TRIPOS>SUBSTRUCTURE
     1 ZINC000478980774        1 TEMP              0 ****  ****    0 ROOT


##########                                Name:    ZINC000616491533
##########                DOCK_Rotatable_Bonds:                   4
##########                         Heavy_Atoms:                  27
##########                    Molecular_Weight:             375.418
##########                DOCK_Rotatable_Bonds:                   4
##########                       Formal_Charge:           0.0299996
##########                     HBond_Acceptors:                   7
##########                        HBond_Donors:                   0
##########                         Heavy_Atoms:                  27
##########                          Grid_Score:          -26.329327
##########                     Grid_vdw_energy:          -25.463211
##########                      Grid_es_energy:           -0.866116
##########           Internal_energy_repulsive:            8.336757

@<TRIPOS>MOLECULE
ZINC000616491533
 50 53 1 0 0
SMALL
USER_CHARGES


@<TRIPOS>ATOM
      1 C1        -11.3642    2.2499   60.4934 C.3     1  ZINC000616491533   -0.1700
      2 C2        -10.0754    1.5509   60.0564 C.3     1  ZINC000616491533    0.1400
      3 H3         -9.2110    2.1269   60.3871 H       1  ZINC000616491533    0.0800
      4 C4        -10.0197    0.1287   60.6567 C.3     1  ZINC000616491533   -0.1200
      5 C5        -10.5204   -0.7545   59.4949 C.3     1  ZINC000616491533   -0.0700
      6 C6         -9.9656   -0.0253   58.2563 C.3     1  ZINC000616491533    0.0900
      7 N7        -10.0534    1.4122   58.5923 N.am    1  ZINC000616491533   -0.6100
      8 C8        -10.1074    2.4242   57.7038 C.2     1  ZINC000616491533    0.6100
      9 O9        -10.1815    3.5733   58.0948 O.2     1  ZINC000616491533   -0.5200
     10 C10       -10.0765    2.1382   56.2580 C.2     1  ZINC000616491533   -0.2400
     11 C11        -8.9564    2.1133   55.4513 C.2     1  ZINC000616491533    0.0700
     12 C12        -7.5374    2.3740   55.8863 C.3     1  ZINC000616491533    0.3400
     13 F13        -7.3829    3.7321   56.1845 F       1  ZINC000616491533   -0.1900
     14 F14        -7.2507    1.6114   57.0236 F       1  ZINC000616491533   -0.1600
     15 N15        -9.3652    1.8128   54.2052 N.pl3   1  ZINC000616491533   -0.2900
     16 C16        -8.5393    1.6879   53.0798 C.ar    1  ZINC000616491533    0.1300
     17 C17        -8.2208    0.4295   52.5869 C.ar    1  ZINC000616491533   -0.1000
     18 C18        -7.4067    0.3096   51.4777 C.ar    1  ZINC000616491533   -0.1000
     19 C19        -6.9084    1.4412   50.8584 C.ar    1  ZINC000616491533   -0.1000
     20 C20        -7.2237    2.6957   51.3469 C.ar    1  ZINC000616491533   -0.1000
     21 C21        -8.0424    2.8223   52.4520 C.ar    1  ZINC000616491533   -0.0900
     22 N22       -10.7545    1.6463   54.2228 N.2     1  ZINC000616491533   -0.2600
     23 C23       -11.1873    1.8323   55.4396 C.2     1  ZINC000616491533    0.0700
     24 C24        -9.9409   -2.1578   59.5987 C.3     1  ZINC000616491533   -0.1400
     25 C25       -10.4941   -3.0187   58.4576 C.3     1  ZINC000616491533    0.0600
     26 O26       -11.9224   -3.0041   58.5051 O.3     1  ZINC000616491533   -0.3800
     27 C27       -12.5030   -1.7101   58.3289 C.3     1  ZINC000616491533    0.0600
     28 C28       -12.0415   -0.7891   59.4639 C.3     1  ZINC000616491533   -0.1500
     29 H29       -12.2240    1.6754   60.1488 H       1  ZINC000616491533    0.0600
     30 H30       -11.3877    2.3222   61.5807 H       1  ZINC000616491533    0.0600
     31 H31       -11.3992    3.2504   60.0620 H       1  ZINC000616491533    0.0800
     32 H32        -8.9979   -0.1353   60.9295 H       1  ZINC000616491533    0.0800
     33 H33       -10.6835    0.0468   61.5174 H       1  ZINC000616491533    0.0900
     34 H34        -8.9281   -0.3102   58.0812 H       1  ZINC000616491533    0.0800
     35 H35       -10.5744   -0.2484   57.3800 H       1  ZINC000616491533    0.0800
     36 H36        -6.8545    2.0986   55.0826 H       1  ZINC000616491533    0.1400
     37 H37        -8.6090   -0.4546   53.0706 H       1  ZINC000616491533    0.1300
     38 H38        -7.1586   -0.6690   51.0938 H       1  ZINC000616491533    0.1400
     39 H39        -6.2713    1.3448   49.9916 H       1  ZINC000616491533    0.1300
     40 H40        -6.8332    3.5776   50.8611 H       1  ZINC000616491533    0.1400
     41 H41        -8.2884    3.8025   52.8332 H       1  ZINC000616491533    0.1300
     42 H42       -12.2157    1.7695   55.7635 H       1  ZINC000616491533    0.2100
     43 H43        -8.8545   -2.1094   59.5244 H       1  ZINC000616491533    0.0800
     44 H44       -10.2217   -2.5978   60.5557 H       1  ZINC000616491533    0.0800
     45 H45       -10.1576   -2.6163   57.5021 H       1  ZINC000616491533    0.0500
     46 H46       -10.1367   -4.0425   58.5680 H       1  ZINC000616491533    0.1000
     47 H47       -12.1849   -1.2959   57.3722 H       1  ZINC000616491533    0.0500
     48 H48       -13.5896   -1.7933   58.3469 H       1  ZINC000616491533    0.1000
     49 H49       -12.4164   -1.1675   60.4149 H       1  ZINC000616491533    0.0800
     50 H50       -12.4251    0.2170   59.2950 H       1  ZINC000616491533    0.0800
@<TRIPOS>BOND
     1     1     2    1
     2     1    29    1
     3     1    30    1
     4     1    31    1
     5     2     3    1
     6     2     7    1
     7     2     4    1
     8     4     5    1
     9     4    32    1
    10     4    33    1
    11     5    28    1
    12     5     6    1
    13     5    24    1
    14     6     7    1
    15     6    34    1
    16     6    35    1
    17     7     8   am
    18     8     9    2
    19     8    10    1
    20    10    23    1
    21    10    11    2
    22    11    12    1
    23    11    15    1
    24    12    13    1
    25    12    14    1
    26    12    36    1
    27    15    16    1
    28    15    22    1
    29    16    21   ar
    30    16    17   ar
    31    17    18   ar
    32    17    37    1
    33    18    19   ar
    34    18    38    1
    35    19    20   ar
    36    19    39    1
    37    20    21   ar
    38    20    40    1
    39    21    41    1
    40    22    23    2
    41    23    42    1
    42    24    25    1
    43    24    43    1
    44    24    44    1
    45    25    26    1
    46    25    45    1
    47    25    46    1
    48    26    27    1
    49    27    28    1
    50    27    47    1
    51    27    48    1
    52    28    49    1
    53    28    50    1
@<TRIPOS>SUBSTRUCTURE
     1 ZINC000616491533        1 TEMP              0 ****  ****    0 ROOT


##########                                Name:    ZINC000521663393
##########                DOCK_Rotatable_Bonds:                   5
##########                         Heavy_Atoms:                  27
##########                    Molecular_Weight:              386.49
##########                DOCK_Rotatable_Bonds:                   5
##########                       Formal_Charge:               -0.02
##########                     HBond_Acceptors:                   6
##########                        HBond_Donors:                   1
##########                         Heavy_Atoms:                  27
##########                          Grid_Score:          -26.316422
##########                     Grid_vdw_energy:          -26.519968
##########                      Grid_es_energy:            0.203547
##########           Internal_energy_repulsive:           15.726346

@<TRIPOS>MOLECULE
ZINC000521663393
 50 53 1 0 0
SMALL
USER_CHARGES


@<TRIPOS>ATOM
      1 C1         -7.9639    3.6840   57.6440 C.3     1  ZINC000521663393   -0.1500
      2 C2         -7.6881    2.5699   56.6321 C.3     1  ZINC000521663393    0.0800
      3 H3         -7.0146    1.8245   57.0549 H       1  ZINC000521663393    0.0900
      4 O4         -7.1493    3.1105   55.4137 O.3     1  ZINC000521663393   -0.2900
      5 C5         -7.5907    2.3695   54.3605 C.ar    1  ZINC000521663393    0.1400
      6 C6         -7.0877    2.2701   53.0663 C.ar    1  ZINC000521663393   -0.1800
      7 C7         -7.7072    1.4527   52.1402 C.ar    1  ZINC000521663393    0.1400
      8 F8         -7.2131    1.3622   50.8861 F       1  ZINC000521663393   -0.1300
      9 C9         -8.8320    0.7256   52.4920 C.ar    1  ZINC000521663393   -0.1800
     10 C10        -9.3338    0.8168   53.7782 C.ar    1  ZINC000521663393   -0.0200
     11 C11        -8.7152    1.6286   54.7028 C.ar    1  ZINC000521663393   -0.2000
     12 C12        -9.0092    1.9136   56.1661 C.3     1  ZINC000521663393    0.1700
     13 H13        -9.8454    2.6052   56.2678 H       1  ZINC000521663393    0.1200
     14 N14        -9.2679    0.6720   56.8994 N.am    1  ZINC000521663393   -0.7200
     15 C15       -10.0623    0.6854   57.9881 C.2     1  ZINC000521663393    0.5300
     16 O16       -10.5644    1.7250   58.3597 O.2     1  ZINC000521663393   -0.5000
     17 C17       -10.3269   -0.5914   58.7436 C.3     1  ZINC000521663393    0.1200
     18 H18        -9.6247   -1.3587   58.4175 H       1  ZINC000521663393    0.0700
     19 C19       -10.1533   -0.3464   60.2204 C.ar    1  ZINC000521663393   -0.0900
     20 C20       -11.1269    0.3343   60.9273 C.ar    1  ZINC000521663393   -0.0900
     21 C21       -10.9677    0.5590   62.2818 C.ar    1  ZINC000521663393   -0.1200
     22 C22        -9.8351    0.1026   62.9298 C.ar    1  ZINC000521663393   -0.1100
     23 C23        -8.8620   -0.5790   62.2232 C.ar    1  ZINC000521663393   -0.1200
     24 C24        -9.0232   -0.8074   60.8694 C.ar    1  ZINC000521663393   -0.1100
     25 N25       -11.7004   -1.0408   58.4800 N.3     1  ZINC000521663393   -0.5300
     26 C26       -12.0744   -2.1387   59.3743 C.3     1  ZINC000521663393    0.0500
     27 C27       -13.5989   -2.2932   59.3999 C.3     1  ZINC000521663393   -0.0700
     28 S28       -14.1649   -2.7122   57.7229 S.3     1  ZINC000521663393   -0.2700
     29 C29       -13.3722   -1.4152   56.7239 C.3     1  ZINC000521663393   -0.0700
     30 C30       -11.8789   -1.3816   57.0667 C.3     1  ZINC000521663393    0.0600
     31 H31        -8.4353    3.2607   58.5310 H       1  ZINC000521663393    0.0800
     32 H32        -7.0248    4.1610   57.9241 H       1  ZINC000521663393    0.0800
     33 H33        -8.6283    4.4239   57.1976 H       1  ZINC000521663393    0.0700
     34 H34        -6.2106    2.8340   52.7850 H       1  ZINC000521663393    0.1400
     35 H35        -9.3159    0.0901   51.7652 H       1  ZINC000521663393    0.1400
     36 H36       -10.2106    0.2513   54.0570 H       1  ZINC000521663393    0.1300
     37 H37        -8.8673   -0.1597   56.6016 H       1  ZINC000521663393    0.4000
     38 H38       -12.0117    0.6909   60.4210 H       1  ZINC000521663393    0.1300
     39 H39       -11.7280    1.0916   62.8340 H       1  ZINC000521663393    0.1300
     40 H40        -9.7104    0.2787   63.9880 H       1  ZINC000521663393    0.1200
     41 H41        -7.9769   -0.9354   62.7292 H       1  ZINC000521663393    0.1300
     42 H42        -8.2629   -1.3400   60.3172 H       1  ZINC000521663393    0.1200
     43 H43       -11.6224   -3.0649   59.0194 H       1  ZINC000521663393    0.0500
     44 H44       -11.7151   -1.9243   60.3809 H       1  ZINC000521663393    0.1000
     45 H45       -13.8746   -3.0909   60.0895 H       1  ZINC000521663393    0.1100
     46 H46       -14.0565   -1.3562   59.7175 H       1  ZINC000521663393    0.0900
     47 H47       -13.4999   -1.6393   55.6648 H       1  ZINC000521663393    0.1100
     48 H48       -13.8225   -0.4495   56.9536 H       1  ZINC000521663393    0.1000
     49 H49       -11.3821   -0.6341   56.4483 H       1  ZINC000521663393    0.0800
     50 H50       -11.4406   -2.3603   56.8720 H       1  ZINC000521663393    0.0500
@<TRIPOS>BOND
     1     1     2    1
     2     1    31    1
     3     1    32    1
     4     1    33    1
     5     2     3    1
     6     2    12    1
     7     2     4    1
     8     4     5    1
     9     5    11   ar
    10     5     6   ar
    11     6     7   ar
    12     6    34    1
    13     7     8    1
    14     7     9   ar
    15     9    10   ar
    16     9    35    1
    17    10    11   ar
    18    10    36    1
    19    11    12    1
    20    12    13    1
    21    12    14    1
    22    14    15   am
    23    14    37    1
    24    15    16    2
    25    15    17    1
    26    17    18    1
    27    17    19    1
    28    17    25    1
    29    19    24   ar
    30    19    20   ar
    31    20    21   ar
    32    20    38    1
    33    21    22   ar
    34    21    39    1
    35    22    23   ar
    36    22    40    1
    37    23    24   ar
    38    23    41    1
    39    24    42    1
    40    25    30    1
    41    25    26    1
    42    26    27    1
    43    26    43    1
    44    26    44    1
    45    27    28    1
    46    27    45    1
    47    27    46    1
    48    28    29    1
    49    29    30    1
    50    29    47    1
    51    29    48    1
    52    30    49    1
    53    30    50    1
@<TRIPOS>SUBSTRUCTURE
     1 ZINC000521663393        1 TEMP              0 ****  ****    0 ROOT


##########                                Name:    ZINC000611836474
##########                DOCK_Rotatable_Bonds:                   7
##########                         Heavy_Atoms:                  22
##########                    Molecular_Weight:             366.258
##########                DOCK_Rotatable_Bonds:                   7
##########                       Formal_Charge:          -0.0300004
##########                     HBond_Acceptors:                   5
##########                        HBond_Donors:                   1
##########                         Heavy_Atoms:                  22
##########                          Grid_Score:          -26.281309
##########                     Grid_vdw_energy:          -25.795326
##########                      Grid_es_energy:           -0.485983
##########           Internal_energy_repulsive:            6.209599

@<TRIPOS>MOLECULE
ZINC000611836474
 42 43 1 0 0
SMALL
USER_CHARGES


@<TRIPOS>ATOM
      1 C1        -16.3380   -3.5499   59.3082 C.3     1  ZINC000611836474   -0.1500
      2 C2        -15.8696   -2.3257   60.0974 C.3     1  ZINC000611836474   -0.1400
      3 C3        -14.6408   -2.6956   60.9307 C.3     1  ZINC000611836474    0.1300
      4 N4        -14.2286   -1.5407   61.7322 N.pl3   1  ZINC000611836474   -0.3900
      5 N5        -14.7073   -1.2082   63.0059 N.2     1  ZINC000611836474   -0.2900
      6 C6        -14.1069   -0.1144   63.3995 C.2     1  ZINC000611836474    0.0600
      7 C7        -13.2253    0.2896   62.3932 C.2     1  ZINC000611836474   -0.2800
      8 C8        -13.3142   -0.6101   61.3756 C.2     1  ZINC000611836474    0.3000
      9 N9        -12.5984   -0.5742   60.1791 N.am    1  ZINC000611836474   -0.6500
     10 C10       -11.2989   -0.9312   60.1603 C.2     1  ZINC000611836474    0.5200
     11 O11       -10.7523   -1.2852   61.1835 O.2     1  ZINC000611836474   -0.4700
     12 C12       -10.5250   -0.8908   58.8677 C.3     1  ZINC000611836474    0.0700
     13 H13       -10.4550   -1.8970   58.4546 H       1  ZINC000611836474    0.1100
     14 C14        -9.1189   -0.3490   59.1319 C.3     1  ZINC000611836474   -0.1800
     15 O15       -11.1965   -0.0394   57.9370 O.3     1  ZINC000611836474   -0.2700
     16 C16       -11.0135   -0.3031   56.6163 C.ar    1  ZINC000611836474    0.1500
     17 C17       -11.5257   -1.4670   56.0629 C.ar    1  ZINC000611836474   -0.2000
     18 C18       -11.3383   -1.7330   54.7199 C.ar    1  ZINC000611836474   -0.0600
     19 C19       -10.6405   -0.8405   53.9278 C.ar    1  ZINC000611836474   -0.1100
     20 C20       -10.4374   -1.1338   52.4636 C.3     1  ZINC000611836474   -0.1100
     21 C21       -10.1290    0.3212   54.4763 C.ar    1  ZINC000611836474   -0.0500
     22 C22       -10.3185    0.5949   55.8176 C.ar    1  ZINC000611836474   -0.1200
     23 Br23       -9.6188    2.1836   56.5676 Br      1  ZINC000611836474   -0.0300
     24 H24       -17.2134   -3.2863   58.7147 H       1  ZINC000611836474    0.0600
     25 H25       -15.5381   -3.8841   58.6475 H       1  ZINC000611836474    0.0600
     26 H26       -16.5963   -4.3513   60.0004 H       1  ZINC000611836474    0.0600
     27 H27       -15.6114   -1.5243   59.4053 H       1  ZINC000611836474    0.0800
     28 H28       -16.6694   -1.9915   60.7582 H       1  ZINC000611836474    0.0600
     29 H29       -14.8867   -3.5271   61.5912 H       1  ZINC000611836474    0.0800
     30 H30       -13.8264   -2.9870   60.2674 H       1  ZINC000611836474    0.1000
     31 H31       -14.2658    0.3905   64.3410 H       1  ZINC000611836474    0.1900
     32 H32       -12.5849    1.1588   62.4196 H       1  ZINC000611836474    0.1700
     33 H33       -13.0359   -0.2924   59.3605 H       1  ZINC000611836474    0.4100
     34 H34        -8.6067   -0.9984   59.8418 H       1  ZINC000611836474    0.0800
     35 H35        -8.5592   -0.3198   58.1970 H       1  ZINC000611836474    0.0800
     36 H36        -9.1889    0.6572   59.5450 H       1  ZINC000611836474    0.0800
     37 H37       -12.0703   -2.1652   56.6813 H       1  ZINC000611836474    0.1400
     38 H38       -11.7371   -2.6394   54.2888 H       1  ZINC000611836474    0.1300
     39 H39       -11.2648   -0.7146   51.8909 H       1  ZINC000611836474    0.0700
     40 H40        -9.5011   -0.6867   52.1299 H       1  ZINC000611836474    0.0700
     41 H41       -10.3998   -2.2125   52.3110 H       1  ZINC000611836474    0.0700
     42 H42        -9.5842    1.0169   53.8553 H       1  ZINC000611836474    0.1400
@<TRIPOS>BOND
     1     1     2    1
     2     1    24    1
     3     1    25    1
     4     1    26    1
     5     2     3    1
     6     2    27    1
     7     2    28    1
     8     3     4    1
     9     3    29    1
    10     3    30    1
    11     4     8    1
    12     4     5    1
    13     5     6    2
    14     6     7    1
    15     6    31    1
    16     7     8    2
    17     7    32    1
    18     8     9    1
    19     9    10   am
    20     9    33    1
    21    10    11    2
    22    10    12    1
    23    12    13    1
    24    12    14    1
    25    12    15    1
    26    14    34    1
    27    14    35    1
    28    14    36    1
    29    15    16    1
    30    16    22   ar
    31    16    17   ar
    32    17    18   ar
    33    17    37    1
    34    18    19   ar
    35    18    38    1
    36    19    20    1
    37    19    21   ar
    38    20    39    1
    39    20    40    1
    40    20    41    1
    41    21    22   ar
    42    21    42    1
    43    22    23    1
@<TRIPOS>SUBSTRUCTURE
     1 ZINC000611836474        1 TEMP              0 ****  ****    0 ROOT


##########                                Name:    ZINC001248546333
##########                DOCK_Rotatable_Bonds:                   6
##########                         Heavy_Atoms:                  27
##########                    Molecular_Weight:             378.397
##########                DOCK_Rotatable_Bonds:                   6
##########                       Formal_Charge:         3.94881e-07
##########                     HBond_Acceptors:                   8
##########                        HBond_Donors:                   1
##########                         Heavy_Atoms:                  27
##########                          Grid_Score:          -26.273443
##########                     Grid_vdw_energy:          -25.761887
##########                      Grid_es_energy:           -0.511557
##########           Internal_energy_repulsive:           27.923754

@<TRIPOS>MOLECULE
ZINC001248546333
 48 50 1 0 0
SMALL
USER_CHARGES


@<TRIPOS>ATOM
      1 C1         -5.9550    3.0507   51.1927 C.3     1  ZINC001248546333   -0.1200
      2 C2         -5.7532    3.0792   52.6858 C.ar    1  ZINC001248546333   -0.0800
      3 C3         -4.4754    3.1683   53.2078 C.ar    1  ZINC001248546333   -0.1200
      4 C4         -4.2815    3.1951   54.5776 C.ar    1  ZINC001248546333   -0.1100
      5 C5         -5.3632    3.1334   55.4316 C.ar    1  ZINC001248546333   -0.1100
      6 C6         -6.6549    3.0439   54.9114 C.ar    1  ZINC001248546333   -0.0600
      7 C7         -7.8185    2.9775   55.8207 C.2     1  ZINC001248546333   -0.0600
      8 C8         -9.0039    2.8118   55.2859 C.2     1  ZINC001248546333   -0.1700
      9 C9        -10.2730    2.7444   56.0893 C.3     1  ZINC001248546333    0.1500
     10 N10        -9.9355    2.6251   57.5150 N.am    1  ZINC001248546333   -0.6300
     11 C11       -10.5908    1.7664   58.3209 C.2     1  ZINC001248546333    0.7200
     12 O12       -11.4813    1.0707   57.8722 O.2     1  ZINC001248546333   -0.5800
     13 N13       -10.2592    1.6789   59.6244 N.am    1  ZINC001248546333   -0.7500
     14 C14       -10.9716    0.7455   60.5004 C.3     1  ZINC001248546333    0.2000
     15 C15       -10.0510    0.2894   61.6029 C.2     1  ZINC001248546333    0.0700
     16 C16        -9.8358    0.9263   62.7773 C.2     1  ZINC001248546333   -0.2000
     17 C17        -8.9157    0.1725   63.5133 C.2     1  ZINC001248546333   -0.0200
     18 C18        -8.3907    0.5127   64.8844 C.3     1  ZINC001248546333    0.5600
     19 F19        -7.2869    1.3635   64.7631 F       1  ZINC001248546333   -0.1700
     20 F20        -9.3930    1.1512   65.6224 F       1  ZINC001248546333   -0.1700
     21 F21        -8.0047   -0.6612   65.5404 F       1  ZINC001248546333   -0.1600
     22 N22        -8.5904   -0.8791   62.8064 N.2     1  ZINC001248546333   -0.2200
     23 N23        -9.2981   -0.8305   61.5984 N.pl3   1  ZINC001248546333   -0.3400
     24 C24        -9.2266   -1.8167   60.5173 C.3     1  ZINC001248546333    0.0900
     25 C25        -8.8525    3.4821   58.0276 C.3     1  ZINC001248546333    0.1300
     26 C26        -7.5630    3.0982   57.2937 C.3     1  ZINC001248546333   -0.1000
     27 C27        -6.8439    3.0223   53.5293 C.ar    1  ZINC001248546333   -0.1100
     28 H28        -6.0660    4.0696   50.8215 H       1  ZINC001248546333    0.0700
     29 H29        -5.0923    2.5831   50.7182 H       1  ZINC001248546333    0.0700
     30 H30        -6.8529    2.4788   50.9583 H       1  ZINC001248546333    0.0700
     31 H31        -3.6253    3.2168   52.5435 H       1  ZINC001248546333    0.1200
     32 H32        -3.2813    3.2639   54.9790 H       1  ZINC001248546333    0.1200
     33 H33        -5.2105    3.1540   56.5006 H       1  ZINC001248546333    0.1200
     34 H34        -9.0726    2.7192   54.2120 H       1  ZINC001248546333    0.1200
     35 H35       -10.8552    3.6515   55.9274 H       1  ZINC001248546333    0.0800
     36 H36       -10.8549    1.8765   55.7788 H       1  ZINC001248546333    0.0800
     37 H37        -9.5488    2.2339   59.9823 H       1  ZINC001248546333    0.4000
     38 H38       -11.8386    1.2440   60.9339 H       1  ZINC001248546333    0.1000
     39 H39       -11.3005   -0.1173   59.9213 H       1  ZINC001248546333    0.0900
     40 H40       -10.2933    1.8531   63.0906 H       1  ZINC001248546333    0.1700
     41 H41        -9.9786   -2.5889   60.6795 H       1  ZINC001248546333    0.0900
     42 H42        -9.4119   -1.3236   59.5631 H       1  ZINC001248546333    0.1000
     43 H43        -8.2360   -2.2711   60.5051 H       1  ZINC001248546333    0.1000
     44 H44        -9.0904    4.5290   57.8390 H       1  ZINC001248546333    0.0700
     45 H45        -8.7285    3.3187   59.0981 H       1  ZINC001248546333    0.1000
     46 H46        -7.1972    2.1473   57.6811 H       1  ZINC001248546333    0.0800
     47 H47        -6.8093    3.8672   57.4629 H       1  ZINC001248546333    0.0900
     48 H48        -7.8412    2.9531   53.1203 H       1  ZINC001248546333    0.1200
@<TRIPOS>BOND
     1     1     2    1
     2     1    28    1
     3     1    29    1
     4     1    30    1
     5     2    27   ar
     6     2     3   ar
     7     3     4   ar
     8     3    31    1
     9     4     5   ar
    10     4    32    1
    11     5     6   ar
    12     5    33    1
    13     6     7    1
    14     6    27   ar
    15     7    26    1
    16     7     8    2
    17     8     9    1
    18     8    34    1
    19     9    10    1
    20     9    35    1
    21     9    36    1
    22    10    11   am
    23    10    25    1
    24    11    12    2
    25    11    13   am
    26    13    14    1
    27    13    37    1
    28    14    15    1
    29    14    38    1
    30    14    39    1
    31    15    23    1
    32    15    16    2
    33    16    17    1
    34    16    40    1
    35    17    18    1
    36    17    22    2
    37    18    19    1
    38    18    20    1
    39    18    21    1
    40    22    23    1
    41    23    24    1
    42    24    41    1
    43    24    42    1
    44    24    43    1
    45    25    26    1
    46    25    44    1
    47    25    45    1
    48    26    46    1
    49    26    47    1
    50    27    48    1
@<TRIPOS>SUBSTRUCTURE
     1 ZINC001248546333        1 TEMP              0 ****  ****    0 ROOT


##########                                Name:    ZINC000225856071
##########                DOCK_Rotatable_Bonds:                   6
##########                         Heavy_Atoms:                  29
##########                    Molecular_Weight:             409.549
##########                DOCK_Rotatable_Bonds:                   6
##########                       Formal_Charge:         -0.00999989
##########                     HBond_Acceptors:                   5
##########                        HBond_Donors:                   1
##########                         Heavy_Atoms:                  29
##########                          Grid_Score:          -26.259895
##########                     Grid_vdw_energy:          -26.022348
##########                      Grid_es_energy:           -0.237548
##########           Internal_energy_repulsive:           36.885399

@<TRIPOS>MOLECULE
ZINC000225856071
 56 58 1 0 0
SMALL
USER_CHARGES


@<TRIPOS>ATOM
      1 C1        -13.4128   -1.3714   54.0661 C.3     1  ZINC000225856071    0.0200
      2 O2        -12.3155   -1.4028   54.9809 O.3     1  ZINC000225856071   -0.3100
      3 C3        -12.5829   -1.0899   56.2761 C.ar    1  ZINC000225856071    0.1900
      4 C4        -12.8540    0.2230   56.6319 C.ar    1  ZINC000225856071   -0.2300
      5 C5        -13.1261    0.5384   57.9494 C.ar    1  ZINC000225856071    0.0700
      6 C6        -13.4207    1.9647   58.3366 C.3     1  ZINC000225856071   -0.1800
      7 C7        -13.1287   -0.4533   58.9124 C.ar    1  ZINC000225856071   -0.7100
      8 S8        -13.4765   -0.0480   60.5915 S.o2    1  ZINC000225856071    2.7000
      9 O9        -14.5935    0.8301   60.5692 O.2     1  ZINC000225856071   -0.9600
     10 O10       -13.4655   -1.2736   61.3106 O.2     1  ZINC000225856071   -0.9500
     11 N11       -12.1966    0.8376   61.1572 N.am    1  ZINC000225856071   -1.1100
     12 C12       -10.8516    0.2568   61.1676 C.3     1  ZINC000225856071    0.2400
     13 H13       -10.9236   -0.8278   61.0869 H       1  ZINC000225856071    0.1100
     14 C14       -10.1577    0.6199   62.4550 C.ar    1  ZINC000225856071   -0.1000
     15 C15       -10.4321    1.8262   63.0718 C.ar    1  ZINC000225856071   -0.1000
     16 C16        -9.7955    2.1592   64.2528 C.ar    1  ZINC000225856071   -0.1200
     17 C17        -8.8848    1.2857   64.8173 C.ar    1  ZINC000225856071   -0.1100
     18 C18        -8.6111    0.0790   64.2010 C.ar    1  ZINC000225856071   -0.1100
     19 C19        -9.2509   -0.2559   63.0223 C.ar    1  ZINC000225856071   -0.1000
     20 C20       -10.0627    0.7960   60.0023 C.ar    1  ZINC000225856071   -0.0900
     21 C21       -10.2630    2.0946   59.5738 C.ar    1  ZINC000225856071   -0.1000
     22 C22        -9.5391    2.5892   58.5047 C.ar    1  ZINC000225856071   -0.1200
     23 C23        -8.6150    1.7851   57.8648 C.ar    1  ZINC000225856071   -0.0800
     24 C24        -7.8264    2.3241   56.6991 C.3     1  ZINC000225856071   -0.1200
     25 C25        -8.4136    0.4864   58.2942 C.ar    1  ZINC000225856071   -0.1200
     26 C26        -9.1345   -0.0067   59.3653 C.ar    1  ZINC000225856071   -0.0600
     27 C27        -8.9150   -1.4223   59.8336 C.3     1  ZINC000225856071   -0.1300
     28 C28       -12.8591   -1.7631   58.5602 C.ar    1  ZINC000225856071    0.0200
     29 C29       -12.5908   -2.0843   57.2438 C.ar    1  ZINC000225856071   -0.1400
     30 C30       -12.2975   -3.5120   56.8605 C.3     1  ZINC000225856071   -0.1100
     31 H31       -13.8383   -0.3681   54.0432 H       1  ZINC000225856071    0.0600
     32 H32       -13.0628   -1.6404   53.0694 H       1  ZINC000225856071    0.1000
     33 H33       -14.1744   -2.0818   54.3878 H       1  ZINC000225856071    0.0600
     34 H34       -12.8522    0.9982   55.8799 H       1  ZINC000225856071    0.1400
     35 H35       -14.4937    2.1449   58.2703 H       1  ZINC000225856071    0.0900
     36 H36       -13.0853    2.1403   59.3587 H       1  ZINC000225856071    0.1000
     37 H37       -12.8964    2.6404   57.6609 H       1  ZINC000225856071    0.0800
     38 H38       -12.3374    1.7408   61.4816 H       1  ZINC000225856071    0.4200
     39 H39       -11.1436    2.5086   62.6308 H       1  ZINC000225856071    0.1200
     40 H40       -10.0094    3.1020   64.7343 H       1  ZINC000225856071    0.1200
     41 H41        -8.3870    1.5462   65.7396 H       1  ZINC000225856071    0.1200
     42 H42        -7.8994   -0.6032   64.6418 H       1  ZINC000225856071    0.1200
     43 H43        -9.0370   -1.1987   62.5407 H       1  ZINC000225856071    0.1200
     44 H44       -10.9852    2.7230   60.0740 H       1  ZINC000225856071    0.1200
     45 H45        -9.6962    3.6038   58.1695 H       1  ZINC000225856071    0.1200
     46 H46        -6.9057    2.7802   57.0632 H       1  ZINC000225856071    0.0700
     47 H47        -7.5831    1.5093   56.0172 H       1  ZINC000225856071    0.0700
     48 H48        -8.4198    3.0726   56.1740 H       1  ZINC000225856071    0.0700
     49 H49        -7.6912   -0.1417   57.7943 H       1  ZINC000225856071    0.1200
     50 H50        -8.1298   -1.4374   60.5894 H       1  ZINC000225856071    0.0800
     51 H51        -9.8391   -1.8107   60.2617 H       1  ZINC000225856071    0.0700
     52 H52        -8.6175   -2.0426   58.9881 H       1  ZINC000225856071    0.0700
     53 H53       -12.8620   -2.5363   59.3143 H       1  ZINC000225856071    0.1500
     54 H54       -13.2284   -4.0176   56.6034 H       1  ZINC000225856071    0.0700
     55 H55       -11.6266   -3.5271   56.0016 H       1  ZINC000225856071    0.0700
     56 H56       -11.8257   -4.0238   57.6993 H       1  ZINC000225856071    0.0700
@<TRIPOS>BOND
     1     1     2    1
     2     1    31    1
     3     1    32    1
     4     1    33    1
     5     2     3    1
     6     3    29   ar
     7     3     4   ar
     8     4     5   ar
     9     4    34    1
    10     5     6    1
    11     5     7   ar
    12     6    35    1
    13     6    36    1
    14     6    37    1
    15     7     8    1
    16     7    28   ar
    17     8     9    2
    18     8    10    2
    19     8    11   am
    20    11    12    1
    21    11    38    1
    22    12    13    1
    23    12    14    1
    24    12    20    1
    25    14    19   ar
    26    14    15   ar
    27    15    16   ar
    28    15    39    1
    29    16    17   ar
    30    16    40    1
    31    17    18   ar
    32    17    41    1
    33    18    19   ar
    34    18    42    1
    35    19    43    1
    36    20    26   ar
    37    20    21   ar
    38    21    22   ar
    39    21    44    1
    40    22    23   ar
    41    22    45    1
    42    23    24    1
    43    23    25   ar
    44    24    46    1
    45    24    47    1
    46    24    48    1
    47    25    26   ar
    48    25    49    1
    49    26    27    1
    50    27    50    1
    51    27    51    1
    52    27    52    1
    53    28    29   ar
    54    28    53    1
    55    29    30    1
    56    30    54    1
    57    30    55    1
    58    30    56    1
@<TRIPOS>SUBSTRUCTURE
     1 ZINC000225856071        1 TEMP              0 ****  ****    0 ROOT


##########                                Name:    ZINC000298969660
##########                DOCK_Rotatable_Bonds:                  10
##########                         Heavy_Atoms:                  29
##########                    Molecular_Weight:             397.474
##########                DOCK_Rotatable_Bonds:                  10
##########                       Formal_Charge:          -0.0100008
##########                     HBond_Acceptors:                   7
##########                        HBond_Donors:                   2
##########                         Heavy_Atoms:                  29
##########                          Grid_Score:          -26.174395
##########                     Grid_vdw_energy:          -25.650421
##########                      Grid_es_energy:           -0.523974
##########           Internal_energy_repulsive:           11.372629

@<TRIPOS>MOLECULE
ZINC000298969660
 56 58 1 0 0
SMALL
USER_CHARGES


@<TRIPOS>ATOM
      1 C1        -11.0670   -1.8142   60.4631 C.3     1  ZINC000298969660    0.0800
      2 N2        -12.0564   -1.9847   59.3962 N.am    1  ZINC000298969660   -0.6300
      3 C3        -13.4613   -2.2278   59.7324 C.3     1  ZINC000298969660    0.1400
      4 C4        -14.2746   -0.9578   59.4744 C.3     1  ZINC000298969660    0.0700
      5 H5        -13.9228   -0.4804   58.5599 H       1  ZINC000298969660    0.0500
      6 C6        -14.1038    0.0058   60.6518 C.3     1  ZINC000298969660   -0.1500
      7 C7        -14.9679    1.2481   60.4142 C.3     1  ZINC000298969660   -0.1200
      8 C8        -16.4247    0.8145   60.2244 C.3     1  ZINC000298969660   -0.1600
      9 C9        -16.5059   -0.1803   59.0636 C.3     1  ZINC000298969660    0.0600
     10 O10       -15.6558   -1.2967   59.3342 O.3     1  ZINC000298969660   -0.3600
     11 C11       -11.6740   -1.9179   58.1056 C.2     1  ZINC000298969660    0.7100
     12 O12       -10.5076   -1.7176   57.8268 O.2     1  ZINC000298969660   -0.5400
     13 N13       -12.5844   -2.0731   57.1240 N.am    1  ZINC000298969660   -0.6900
     14 C14       -12.1873   -2.0038   55.7840 C.ar    1  ZINC000298969660    0.2000
     15 C15       -12.3165   -3.1157   54.9620 C.ar    1  ZINC000298969660   -0.1800
     16 C16       -11.9239   -3.0474   53.6391 C.ar    1  ZINC000298969660   -0.0600
     17 C17       -11.4024   -1.8734   53.1304 C.ar    1  ZINC000298969660   -0.2300
     18 C18       -11.2710   -0.7589   53.9473 C.ar    1  ZINC000298969660    0.1500
     19 O19       -10.7575    0.3950   53.4456 O.3     1  ZINC000298969660   -0.2900
     20 C20        -9.6988    1.0089   54.1835 C.3     1  ZINC000298969660    0.0400
     21 C21        -8.7534    1.6936   53.2303 C.2     1  ZINC000298969660    0.5100
     22 O22        -9.1740    2.1730   52.1987 O.2     1  ZINC000298969660   -0.4900
     23 N23        -7.4405    1.7731   53.5243 N.am    1  ZINC000298969660   -0.6700
     24 C24        -6.5627    2.4089   52.6393 C.ar    1  ZINC000298969660    0.1400
     25 C25        -6.3788    1.9040   51.3588 C.ar    1  ZINC000298969660   -0.1400
     26 C26        -5.5117    2.5338   50.4877 C.ar    1  ZINC000298969660   -0.1000
     27 C27        -4.8264    3.6656   50.8895 C.ar    1  ZINC000298969660   -0.1300
     28 C28        -5.0069    4.1706   52.1641 C.ar    1  ZINC000298969660   -0.1000
     29 C29        -5.8777    3.5493   53.0378 C.ar    1  ZINC000298969660   -0.1200
     30 C30       -11.6689   -0.8219   55.2732 C.ar    1  ZINC000298969660   -0.1500
     31 H31       -10.6464   -2.7845   60.7272 H       1  ZINC000298969660    0.0600
     32 H32       -10.2705   -1.1548   60.1180 H       1  ZINC000298969660    0.0700
     33 H33       -11.5476   -1.3763   61.3379 H       1  ZINC000298969660    0.0800
     34 H34       -13.8477   -3.0385   59.1145 H       1  ZINC000298969660    0.1000
     35 H35       -13.5411   -2.5029   60.7840 H       1  ZINC000298969660    0.0900
     36 H36       -14.4175   -0.4853   61.5729 H       1  ZINC000298969660    0.0800
     37 H37       -13.0574    0.3000   60.7328 H       1  ZINC000298969660    0.0700
     38 H38       -14.8946    1.9133   61.2746 H       1  ZINC000298969660    0.0700
     39 H39       -14.6225    1.7670   59.5200 H       1  ZINC000298969660    0.0600
     40 H40       -16.7853    0.3398   61.1369 H       1  ZINC000298969660    0.0700
     41 H41       -17.0382    1.6871   59.9999 H       1  ZINC000298969660    0.0700
     42 H42       -17.5338   -0.5250   58.9515 H       1  ZINC000298969660    0.0900
     43 H43       -16.1835    0.3075   58.1437 H       1  ZINC000298969660    0.0400
     44 H44       -13.5149   -2.2329   57.3465 H       1  ZINC000298969660    0.4100
     45 H45       -12.7239   -4.0346   55.3573 H       1  ZINC000298969660    0.1300
     46 H46       -12.0245   -3.9133   53.0016 H       1  ZINC000298969660    0.1300
     47 H47       -11.0964   -1.8229   52.0958 H       1  ZINC000298969660    0.1300
     48 H48       -10.1149    1.7434   54.8730 H       1  ZINC000298969660    0.1000
     49 H49        -9.1590    0.2472   54.7462 H       1  ZINC000298969660    0.1000
     50 H50        -7.1042    1.3897   54.3493 H       1  ZINC000298969660    0.4100
     51 H51        -6.9133    1.0196   51.0446 H       1  ZINC000298969660    0.1300
     52 H52        -5.3684    2.1417   49.4916 H       1  ZINC000298969660    0.1300
     53 H53        -4.1486    4.1561   50.2066 H       1  ZINC000298969660    0.1200
     54 H54        -4.4697    5.0544   52.4753 H       1  ZINC000298969660    0.1300
     55 H55        -6.0182    3.9441   54.0332 H       1  ZINC000298969660    0.1300
     56 H56       -11.5674    0.0442   55.9103 H       1  ZINC000298969660    0.1500
@<TRIPOS>BOND
     1     1     2    1
     2     1    31    1
     3     1    32    1
     4     1    33    1
     5     2     3    1
     6     2    11   am
     7     3     4    1
     8     3    34    1
     9     3    35    1
    10     4     5    1
    11     4    10    1
    12     4     6    1
    13     6     7    1
    14     6    36    1
    15     6    37    1
    16     7     8    1
    17     7    38    1
    18     7    39    1
    19     8     9    1
    20     8    40    1
    21     8    41    1
    22     9    10    1
    23     9    42    1
    24     9    43    1
    25    11    12    2
    26    11    13   am
    27    13    14    1
    28    13    44    1
    29    14    30   ar
    30    14    15   ar
    31    15    16   ar
    32    15    45    1
    33    16    17   ar
    34    16    46    1
    35    17    18   ar
    36    17    47    1
    37    18    19    1
    38    18    30   ar
    39    19    20    1
    40    20    21    1
    41    20    48    1
    42    20    49    1
    43    21    22    2
    44    21    23   am
    45    23    24    1
    46    23    50    1
    47    24    29   ar
    48    24    25   ar
    49    25    26   ar
    50    25    51    1
    51    26    27   ar
    52    26    52    1
    53    27    28   ar
    54    27    53    1
    55    28    29   ar
    56    28    54    1
    57    29    55    1
    58    30    56    1
@<TRIPOS>SUBSTRUCTURE
     1 ZINC000298969660        1 TEMP              0 ****  ****    0 ROOT


##########                                Name:    ZINC000560467340
##########                DOCK_Rotatable_Bonds:                   7
##########                         Heavy_Atoms:                  24
##########                    Molecular_Weight:             369.481
##########                DOCK_Rotatable_Bonds:                   7
##########                       Formal_Charge:          -0.0199997
##########                     HBond_Acceptors:                   7
##########                        HBond_Donors:                   2
##########                         Heavy_Atoms:                  24
##########                          Grid_Score:          -26.158895
##########                     Grid_vdw_energy:          -25.656101
##########                      Grid_es_energy:           -0.502794
##########           Internal_energy_repulsive:           17.872360

@<TRIPOS>MOLECULE
ZINC000560467340
 44 46 1 0 0
SMALL
USER_CHARGES


@<TRIPOS>ATOM
      1 O1         -7.3091    0.7434   50.8717 O.2     1  ZINC000560467340   -0.9600
      2 S2         -7.2318    2.1589   50.7727 S.o2    1  ZINC000560467340    2.7100
      3 O3         -7.6056    2.8779   49.6054 O.2     1  ZINC000560467340   -0.9500
      4 N4         -8.1509    2.7650   52.0098 N.am    1  ZINC000560467340   -1.0900
      5 C5         -7.9048    2.3293   53.3866 C.3     1  ZINC000560467340    0.1400
      6 C6         -8.7229    3.1929   54.3489 C.3     1  ZINC000560467340   -0.0500
      7 C7        -10.2176    2.9847   54.0976 C.3     1  ZINC000560467340   -0.0700
      8 C8        -10.4985    1.5137   53.9285 C.ar    1  ZINC000560467340   -0.0900
      9 C9        -10.6603    0.7091   55.0409 C.ar    1  ZINC000560467340   -0.0900
     10 C10       -10.9179   -0.6399   54.8871 C.ar    1  ZINC000560467340   -0.1500
     11 C11       -11.0143   -1.1854   53.6181 C.ar    1  ZINC000560467340    0.1000
     12 F12       -11.2666   -2.5039   53.4665 F       1  ZINC000560467340   -0.1400
     13 C13       -10.8526   -0.3785   52.5047 C.ar    1  ZINC000560467340   -0.1500
     14 C14       -10.5998    0.9713   52.6610 C.ar    1  ZINC000560467340   -0.0900
     15 C15        -8.3571    4.6802   54.1651 C.3     1  ZINC000560467340   -0.1300
     16 C16        -8.4026    5.2625   55.5997 C.3     1  ZINC000560467340   -0.1200
     17 C17        -7.8144    4.1125   56.4543 C.3     1  ZINC000560467340   -0.1600
     18 C18        -8.3777    2.8319   55.8043 C.3     1  ZINC000560467340    0.1100
     19 H19        -9.2753    2.5093   56.3318 H       1  ZINC000560467340    0.0600
     20 O20        -7.3945    1.7953   55.8326 O.3     1  ZINC000560467340   -0.5500
     21 C21        -5.5566    2.5902   51.1077 C.2     1  ZINC000560467340   -0.6900
     22 C22        -4.7353    1.7963   51.7965 C.2     1  ZINC000560467340   -0.1000
     23 S23        -3.1544    2.5556   51.9290 S.3     1  ZINC000560467340    0.1500
     24 C24        -3.7142    3.9498   51.0144 C.2     1  ZINC000560467340   -0.2200
     25 C25        -4.9914    3.7760   50.6711 C.2     1  ZINC000560467340   -0.0700
     26 H26        -8.8521    3.4086   51.8227 H       1  ZINC000560467340    0.4200
     27 H27        -8.1991    1.2855   53.4955 H       1  ZINC000560467340    0.0600
     28 H28        -6.8444    2.4337   53.6167 H       1  ZINC000560467340    0.0800
     29 H29       -10.7854    3.3679   54.9454 H       1  ZINC000560467340    0.0800
     30 H30       -10.5115    3.5170   53.1930 H       1  ZINC000560467340    0.0800
     31 H31       -10.5850    1.1349   56.0306 H       1  ZINC000560467340    0.1300
     32 H32       -11.0435   -1.2685   55.7563 H       1  ZINC000560467340    0.1400
     33 H33       -10.9272   -0.8029   51.5144 H       1  ZINC000560467340    0.1400
     34 H34       -10.4738    1.6010   51.7926 H       1  ZINC000560467340    0.1300
     35 H35        -7.3559    4.7779   53.7454 H       1  ZINC000560467340    0.0700
     36 H36        -9.0889    5.1772   53.5283 H       1  ZINC000560467340    0.0800
     37 H37        -7.7819    6.1555   55.6740 H       1  ZINC000560467340    0.0700
     38 H38        -9.4289    5.4785   55.8966 H       1  ZINC000560467340    0.0700
     39 H39        -6.7256    4.1184   56.4042 H       1  ZINC000560467340    0.0800
     40 H40        -8.1501    4.1951   57.4880 H       1  ZINC000560467340    0.0700
     41 H41        -6.6004    1.9922   55.3173 H       1  ZINC000560467340    0.3800
     42 H42        -5.0007    0.8345   52.2100 H       1  ZINC000560467340    0.1800
     43 H43        -3.1143    4.8125   50.7649 H       1  ZINC000560467340    0.1700
     44 H44        -5.5449    4.5085   50.1024 H       1  ZINC000560467340    0.1500
@<TRIPOS>BOND
     1     1     2    2
     2     2     3    2
     3     2     4   am
     4     2    21    1
     5     4     5    1
     6     4    26    1
     7     5     6    1
     8     5    27    1
     9     5    28    1
    10     6    18    1
    11     6     7    1
    12     6    15    1
    13     7     8    1
    14     7    29    1
    15     7    30    1
    16     8    14   ar
    17     8     9   ar
    18     9    10   ar
    19     9    31    1
    20    10    11   ar
    21    10    32    1
    22    11    12    1
    23    11    13   ar
    24    13    14   ar
    25    13    33    1
    26    14    34    1
    27    15    16    1
    28    15    35    1
    29    15    36    1
    30    16    17    1
    31    16    37    1
    32    16    38    1
    33    17    18    1
    34    17    39    1
    35    17    40    1
    36    18    19    1
    37    18    20    1
    38    20    41    1
    39    21    25    1
    40    21    22    2
    41    22    23    1
    42    22    42    1
    43    23    24    1
    44    24    25    2
    45    24    43    1
    46    25    44    1
@<TRIPOS>SUBSTRUCTURE
     1 ZINC000560467340        1 TEMP              0 ****  ****    0 ROOT


##########                                Name:    ZINC000277085192
##########                DOCK_Rotatable_Bonds:                   4
##########                         Heavy_Atoms:                  23
##########                    Molecular_Weight:             335.747
##########                DOCK_Rotatable_Bonds:                   4
##########                       Formal_Charge:         5.96046e-08
##########                     HBond_Acceptors:                   8
##########                        HBond_Donors:                   2
##########                         Heavy_Atoms:                  23
##########                          Grid_Score:          -26.143848
##########                     Grid_vdw_energy:          -24.758392
##########                      Grid_es_energy:           -1.385455
##########           Internal_energy_repulsive:            4.265795

@<TRIPOS>MOLECULE
ZINC000277085192
 37 39 1 0 0
SMALL
USER_CHARGES


@<TRIPOS>ATOM
      1 O1          2.5001    2.5243   48.1685 O.2     1  ZINC000277085192   -0.5000
      2 C2          3.1690    1.5605   48.4767 C.2     1  ZINC000277085192    0.5000
      3 C3          3.7403    1.4534   49.8671 C.3     1  ZINC000277085192    0.1100
      4 N4          2.7980    2.0319   50.8281 N.am    1  ZINC000277085192   -0.6000
      5 C5          2.9750    3.4170   51.2682 C.3     1  ZINC000277085192    0.1100
      6 C6          1.6051    4.0697   51.4665 C.3     1  ZINC000277085192   -0.1600
      7 C7          0.7199    3.1350   52.2521 C.2     1  ZINC000277085192    0.5200
      8 O8         -0.0926    3.5822   53.0328 O.2     1  ZINC000277085192   -0.5000
      9 N9          0.8321    1.8044   52.0856 N.am    1  ZINC000277085192   -0.6700
     10 C10         1.7807    1.2860   51.2889 C.2     1  ZINC000277085192    0.7200
     11 O11         1.7223    0.1108   50.9842 O.2     1  ZINC000277085192   -0.5500
     12 N12         3.3965    0.5828   47.5774 N.am    1  ZINC000277085192   -0.6700
     13 C13         2.8658    0.6823   46.2856 C.ar    1  ZINC000277085192    0.1400
     14 C14         1.5948    0.2063   46.0220 C.ar    1  ZINC000277085192   -0.0400
     15 C15         1.0624    0.3052   44.7271 C.ar    1  ZINC000277085192   -0.1700
     16 C16         1.8263    0.8866   43.7145 C.ar    1  ZINC000277085192   -0.0500
     17 C17         3.0956    1.3592   43.9903 C.ar    1  ZINC000277085192   -0.0900
     18 C18         3.6155    1.2652   45.2683 C.ar    1  ZINC000277085192   -0.0300
     19 Cl19        5.2111    1.8628   45.6010 Cl      1  ZINC000277085192   -0.0500
     20 C20         1.0442    0.8786   42.4227 C.3     1  ZINC000277085192   -0.0800
     21 C21        -0.3062    0.2221   42.7406 C.3     1  ZINC000277085192   -0.1700
     22 C22        -0.2469   -0.1229   44.2087 C.2     1  ZINC000277085192    0.4100
     23 O23        -1.1255   -0.6592   44.8499 O.2     1  ZINC000277085192   -0.4300
     24 H24         3.9096    0.4045   50.1105 H       1  ZINC000277085192    0.1300
     25 H25         4.6854    1.9945   49.9142 H       1  ZINC000277085192    0.1200
     26 H26         3.5240    3.4316   52.2098 H       1  ZINC000277085192    0.0800
     27 H27         3.5346    3.9692   50.5132 H       1  ZINC000277085192    0.1000
     28 H28         1.7231    5.0051   52.0134 H       1  ZINC000277085192    0.1300
     29 H29         1.1527    4.2692   50.4951 H       1  ZINC000277085192    0.1200
     30 H30         0.2166    1.2119   52.5449 H       1  ZINC000277085192    0.4300
     31 H31         3.9282   -0.1898   47.8251 H       1  ZINC000277085192    0.4200
     32 H32         1.0115   -0.2420   46.8127 H       1  ZINC000277085192    0.1500
     33 H33         3.6836    1.8083   43.2036 H       1  ZINC000277085192    0.1500
     34 H34         0.8909    1.8991   42.0716 H       1  ZINC000277085192    0.1000
     35 H35         1.5743    0.2980   41.6678 H       1  ZINC000277085192    0.1000
     36 H36        -1.1203    0.9214   42.5495 H       1  ZINC000277085192    0.1100
     37 H37        -0.4361   -0.6817   42.1452 H       1  ZINC000277085192    0.1100
@<TRIPOS>BOND
     1     1     2    2
     2     2     3    1
     3     2    12   am
     4     3     4    1
     5     3    24    1
     6     3    25    1
     7     4    10   am
     8     4     5    1
     9     5     6    1
    10     5    26    1
    11     5    27    1
    12     6     7    1
    13     6    28    1
    14     6    29    1
    15     7     8    2
    16     7     9   am
    17     9    10   am
    18     9    30    1
    19    10    11    2
    20    12    13    1
    21    12    31    1
    22    13    18   ar
    23    13    14   ar
    24    14    15   ar
    25    14    32    1
    26    15    22    1
    27    15    16   ar
    28    16    17   ar
    29    16    20    1
    30    17    18   ar
    31    17    33    1
    32    18    19    1
    33    20    21    1
    34    20    34    1
    35    20    35    1
    36    21    22    1
    37    21    36    1
    38    21    37    1
    39    22    23    2
@<TRIPOS>SUBSTRUCTURE
     1 ZINC000277085192        1 TEMP              0 ****  ****    0 ROOT


##########                                Name:    ZINC001220171460
##########                DOCK_Rotatable_Bonds:                  10
##########                         Heavy_Atoms:                  25
##########                    Molecular_Weight:             383.773
##########                DOCK_Rotatable_Bonds:                  10
##########                       Formal_Charge:           0.0199996
##########                     HBond_Acceptors:                  10
##########                        HBond_Donors:                   3
##########                         Heavy_Atoms:                  25
##########                          Grid_Score:          -26.131048
##########                     Grid_vdw_energy:          -26.345163
##########                      Grid_es_energy:            0.214114
##########           Internal_energy_repulsive:            8.162978

@<TRIPOS>MOLECULE
ZINC001220171460
 43 44 1 0 0
SMALL
USER_CHARGES


@<TRIPOS>ATOM
      1 C1        -10.7805    3.4012   52.8280 C.3     1  ZINC001220171460    0.0200
      2 O2        -10.4627    2.4267   51.8324 O.3     1  ZINC001220171460   -0.3100
      3 C3         -9.1525    2.0869   51.6970 C.ar    1  ZINC001220171460    0.1000
      4 C4         -8.2382    3.0195   51.2369 C.ar    1  ZINC001220171460   -0.1500
      5 C5         -6.9054    2.6732   51.0993 C.ar    1  ZINC001220171460   -0.0600
      6 Cl6        -5.7610    3.8445   50.5228 Cl      1  ZINC001220171460   -0.0400
      7 C7         -6.4827    1.3939   51.4210 C.ar    1  ZINC001220171460    0.1000
      8 F8         -5.1807    1.0599   51.2857 F       1  ZINC001220171460   -0.1200
      9 C9         -7.3921    0.4576   51.8814 C.ar    1  ZINC001220171460   -0.1200
     10 C10        -8.7277    0.8018   52.0264 C.ar    1  ZINC001220171460    0.1800
     11 N11        -9.6505   -0.1452   52.4926 N.am    1  ZINC001220171460   -0.6700
     12 C12        -9.9928   -0.1677   53.7959 C.2     1  ZINC001220171460    0.7100
     13 O13        -9.5014    0.6334   54.5674 O.2     1  ZINC001220171460   -0.5700
     14 N14       -10.8799   -1.0780   54.2441 N.am    1  ZINC001220171460   -0.7400
     15 C15       -11.2508   -1.1035   55.6611 C.3     1  ZINC001220171460    0.1400
     16 C16       -11.4781   -2.5506   56.1028 C.3     1  ZINC001220171460   -0.1400
     17 C17       -12.2693   -2.5659   57.4123 C.3     1  ZINC001220171460    0.0500
     18 H18       -12.8088   -1.6251   57.5218 H       1  ZINC001220171460    0.1000
     19 N19       -13.2265   -3.6800   57.3932 N.3     1  ZINC001220171460   -0.6500
     20 C20       -14.5530   -3.2423   57.8480 C.3     1  ZINC001220171460    0.0100
     21 C21       -15.6784   -3.2054   56.8122 C.3     1  ZINC001220171460   -0.2000
     22 C22       -15.6666   -4.2905   57.8908 C.3     1  ZINC001220171460   -0.1600
     23 C23       -11.3061   -2.7411   58.5881 C.3     1  ZINC001220171460    0.4600
     24 F24       -10.4098   -1.6675   58.6207 F       1  ZINC001220171460   -0.1800
     25 F25       -12.0316   -2.7793   59.7836 F       1  ZINC001220171460   -0.1800
     26 F26       -10.5961   -3.9369   58.4351 F       1  ZINC001220171460   -0.1700
     27 H27       -10.4701    3.0353   53.8068 H       1  ZINC001220171460    0.0600
     28 H28       -10.2581    4.3316   52.6057 H       1  ZINC001220171460    0.0600
     29 H29       -11.8557    3.5801   52.8313 H       1  ZINC001220171460    0.1100
     30 H30        -8.5654    4.0175   50.9849 H       1  ZINC001220171460    0.1500
     31 H31        -7.0611   -0.5395   52.1317 H       1  ZINC001220171460    0.1800
     32 H32       -10.0425   -0.7843   51.8770 H       1  ZINC001220171460    0.4200
     33 H33       -11.2729   -1.7163   53.6283 H       1  ZINC001220171460    0.4000
     34 H34       -10.4489   -0.6643   56.2545 H       1  ZINC001220171460    0.0800
     35 H35       -12.1666   -0.5309   55.8074 H       1  ZINC001220171460    0.0700
     36 H36       -12.0388   -3.0815   55.3335 H       1  ZINC001220171460    0.1000
     37 H37       -10.5159   -3.0398   56.2540 H       1  ZINC001220171460    0.1000
     38 H38       -13.2782   -4.0966   56.4757 H       1  ZINC001220171460    0.3600
     39 H39       -14.5550   -2.4740   58.6213 H       1  ZINC001220171460    0.1200
     40 H40       -16.4210   -2.4129   56.9038 H       1  ZINC001220171460    0.1000
     41 H41       -15.4345   -3.5061   55.7932 H       1  ZINC001220171460    0.1000
     42 H42       -15.4150   -5.3049   57.5815 H       1  ZINC001220171460    0.1000
     43 H43       -16.4014   -4.2117   58.6920 H       1  ZINC001220171460    0.1000
@<TRIPOS>BOND
     1     1     2    1
     2     1    27    1
     3     1    28    1
     4     1    29    1
     5     2     3    1
     6     3    10   ar
     7     3     4   ar
     8     4     5   ar
     9     4    30    1
    10     5     6    1
    11     5     7   ar
    12     7     8    1
    13     7     9   ar
    14     9    10   ar
    15     9    31    1
    16    10    11    1
    17    11    12   am
    18    11    32    1
    19    12    13    2
    20    12    14   am
    21    14    15    1
    22    14    33    1
    23    15    16    1
    24    15    34    1
    25    15    35    1
    26    16    17    1
    27    16    36    1
    28    16    37    1
    29    17    18    1
    30    17    19    1
    31    17    23    1
    32    19    20    1
    33    19    38    1
    34    20    22    1
    35    20    21    1
    36    20    39    1
    37    21    22    1
    38    21    40    1
    39    21    41    1
    40    22    42    1
    41    22    43    1
    42    23    24    1
    43    23    25    1
    44    23    26    1
@<TRIPOS>SUBSTRUCTURE
     1 ZINC001220171460        1 TEMP              0 ****  ****    0 ROOT


##########                                Name:    ZINC000422507946
##########                DOCK_Rotatable_Bonds:                   7
##########                         Heavy_Atoms:                  25
##########                    Molecular_Weight:             364.484
##########                DOCK_Rotatable_Bonds:                   7
##########                       Formal_Charge:          0.00999952
##########                     HBond_Acceptors:                   6
##########                        HBond_Donors:                   1
##########                         Heavy_Atoms:                  25
##########                          Grid_Score:          -26.110880
##########                     Grid_vdw_energy:          -25.468111
##########                      Grid_es_energy:           -0.642769
##########           Internal_energy_repulsive:           48.679150

@<TRIPOS>MOLECULE
ZINC000422507946
 50 52 1 0 0
SMALL
USER_CHARGES


@<TRIPOS>ATOM
      1 C1        -12.1257   -1.3439   52.5895 C.3     1  ZINC000422507946   -0.1400
      2 C2        -12.0235    0.1181   53.0284 C.3     1  ZINC000422507946   -0.0400
      3 H3        -13.0156    0.5650   53.0927 H       1  ZINC000422507946    0.1100
      4 C4        -11.1380    0.9136   52.0468 C.3     1  ZINC000422507946   -0.1400
      5 C5        -10.3811    2.0021   52.8275 C.3     1  ZINC000422507946    0.1400
      6 H6        -11.0691    2.7929   53.1259 H       1  ZINC000422507946    0.1100
      7 N7         -9.3088    2.5584   51.9986 N.am    1  ZINC000422507946   -0.6900
      8 C8         -8.3140    1.7619   51.5599 C.2     1  ZINC000422507946    0.5100
      9 O9         -8.3073    0.5838   51.8502 O.2     1  ZINC000422507946   -0.5000
     10 C10        -7.2193    2.3299   50.7158 C.2     1  ZINC000422507946    0.5100
     11 O11        -7.4359    2.6243   49.5587 O.2     1  ZINC000422507946   -0.5200
     12 N12        -5.9914    2.5151   51.2398 N.am    1  ZINC000422507946   -0.5700
     13 C13        -5.7301    2.1595   52.6368 C.3     1  ZINC000422507946    0.1400
     14 C14        -5.9427    3.3685   53.5111 C.ar    1  ZINC000422507946   -0.0800
     15 C15        -6.8618    4.3334   53.1442 C.ar    1  ZINC000422507946   -0.1100
     16 C16        -7.0580    5.4431   53.9452 C.ar    1  ZINC000422507946   -0.0900
     17 C17        -6.3352    5.5887   55.1139 C.ar    1  ZINC000422507946   -0.1500
     18 C18        -5.4143    4.6224   55.4827 C.ar    1  ZINC000422507946    0.1000
     19 F19        -4.7071    4.7637   56.6250 F       1  ZINC000422507946   -0.1400
     20 C20        -5.2227    3.5091   54.6824 C.ar    1  ZINC000422507946   -0.1500
     21 C21        -4.9182    3.0717   50.4125 C.3     1  ZINC000422507946    0.1400
     22 C22        -4.3572    4.3516   51.0659 C.3     1  ZINC000422507946   -0.1200
     23 C23        -3.1218    3.8618   51.8616 C.3     1  ZINC000422507946   -0.1300
     24 C24        -2.5191    2.7835   50.9272 C.3     1  ZINC000422507946   -0.1200
     25 C25        -3.7495    2.0747   50.3244 C.3     1  ZINC000422507946   -0.1600
     26 C26        -9.7804    1.3200   54.0848 C.3     1  ZINC000422507946   -0.0900
     27 S27       -11.1619    0.2423   54.6391 S.3     1  ZINC000422507946   -0.2700
     28 H28       -12.7301   -1.8976   53.3081 H       1  ZINC000422507946    0.0700
     29 H29       -12.5922   -1.3963   51.6058 H       1  ZINC000422507946    0.0700
     30 H30       -11.1277   -1.7797   52.5420 H       1  ZINC000422507946    0.0700
     31 H31       -10.4241    0.2413   51.5711 H       1  ZINC000422507946    0.0900
     32 H32       -11.7631    1.3782   51.2844 H       1  ZINC000422507946    0.0900
     33 H33        -9.3149    3.5000   51.7656 H       1  ZINC000422507946    0.4100
     34 H34        -6.4111    1.3654   52.9432 H       1  ZINC000422507946    0.1100
     35 H35        -4.7010    1.8147   52.7376 H       1  ZINC000422507946    0.1000
     36 H36        -7.4270    4.2206   52.2307 H       1  ZINC000422507946    0.1400
     37 H37        -7.7761    6.1965   53.6573 H       1  ZINC000422507946    0.1300
     38 H38        -6.4881    6.4559   55.7390 H       1  ZINC000422507946    0.1400
     39 H39        -4.5050    2.7547   54.9693 H       1  ZINC000422507946    0.1400
     40 H40        -5.2944    3.2953   49.4142 H       1  ZINC000422507946    0.1100
     41 H41        -4.0590    5.0704   50.3026 H       1  ZINC000422507946    0.0800
     42 H42        -5.0940    4.7913   51.7381 H       1  ZINC000422507946    0.0600
     43 H43        -2.4149    4.6767   52.0175 H       1  ZINC000422507946    0.0700
     44 H44        -3.4239    3.4237   52.8128 H       1  ZINC000422507946    0.0600
     45 H45        -1.9240    3.2489   50.1415 H       1  ZINC000422507946    0.0700
     46 H46        -1.9145    2.0788   51.4982 H       1  ZINC000422507946    0.0700
     47 H47        -3.9809    1.1766   50.8971 H       1  ZINC000422507946    0.0900
     48 H48        -3.5580    1.8150   49.2833 H       1  ZINC000422507946    0.0800
     49 H49        -8.9046    0.7262   53.8232 H       1  ZINC000422507946    0.1000
     50 H50        -9.5357    2.0591   54.8478 H       1  ZINC000422507946    0.1100
@<TRIPOS>BOND
     1     1     2    1
     2     1    28    1
     3     1    29    1
     4     1    30    1
     5     2     3    1
     6     2    27    1
     7     2     4    1
     8     4     5    1
     9     4    31    1
    10     4    32    1
    11     5     6    1
    12     5     7    1
    13     5    26    1
    14     7     8   am
    15     7    33    1
    16     8     9    2
    17     8    10    1
    18    10    11    2
    19    10    12   am
    20    12    13    1
    21    12    21    1
    22    13    14    1
    23    13    34    1
    24    13    35    1
    25    14    20   ar
    26    14    15   ar
    27    15    16   ar
    28    15    36    1
    29    16    17   ar
    30    16    37    1
    31    17    18   ar
    32    17    38    1
    33    18    19    1
    34    18    20   ar
    35    20    39    1
    36    21    25    1
    37    21    22    1
    38    21    40    1
    39    22    23    1
    40    22    41    1
    41    22    42    1
    42    23    24    1
    43    23    43    1
    44    23    44    1
    45    24    25    1
    46    24    45    1
    47    24    46    1
    48    25    47    1
    49    25    48    1
    50    26    27    1
    51    26    49    1
    52    26    50    1
@<TRIPOS>SUBSTRUCTURE
     1 ZINC000422507946        1 TEMP              0 ****  ****    0 ROOT


##########                                Name:    ZINC001023407238
##########                DOCK_Rotatable_Bonds:                   7
##########                         Heavy_Atoms:                  25
##########                    Molecular_Weight:             349.387
##########                DOCK_Rotatable_Bonds:                   7
##########                       Formal_Charge:          -0.0300008
##########                     HBond_Acceptors:                   8
##########                        HBond_Donors:                   2
##########                         Heavy_Atoms:                  25
##########                          Grid_Score:          -26.084286
##########                     Grid_vdw_energy:          -26.208031
##########                      Grid_es_energy:            0.123745
##########           Internal_energy_repulsive:            8.245999

@<TRIPOS>MOLECULE
ZINC001023407238
 48 50 1 0 0
SMALL
USER_CHARGES


@<TRIPOS>ATOM
      1 C1        -10.6154   -0.6052   52.7965 C.3     1  ZINC001023407238   -0.0900
      2 C2        -12.1044   -0.5131   53.0097 C.2     1  ZINC001023407238   -0.1100
      3 C3        -12.8825   -1.3837   53.7428 C.2     1  ZINC001023407238   -0.0500
      4 C4        -12.4116   -2.5732   54.4604 C.2     1  ZINC001023407238    0.6100
      5 O5        -12.2871   -3.6302   53.8704 O.2     1  ZINC001023407238   -0.5100
      6 N6        -12.1170   -2.4954   55.7733 N.am    1  ZINC001023407238   -0.6100
      7 C7        -11.6377   -3.6044   56.6110 C.3     1  ZINC001023407238    0.0800
      8 C8        -11.4099   -3.0416   58.0298 C.3     1  ZINC001023407238    0.0900
      9 H9        -12.2773   -3.2289   58.6628 H       1  ZINC001023407238    0.0800
     10 O10       -10.2310   -3.6008   58.6123 O.3     1  ZINC001023407238   -0.5500
     11 C11       -11.2334   -1.5211   57.7764 C.3     1  ZINC001023407238    0.1400
     12 H12       -10.2110   -1.2910   57.4767 H       1  ZINC001023407238    0.1200
     13 N13       -11.6193   -0.7437   58.9566 N.am    1  ZINC001023407238   -0.7200
     14 C14       -10.6884   -0.0476   59.6389 C.2     1  ZINC001023407238    0.5200
     15 O15        -9.5311   -0.0660   59.2766 O.2     1  ZINC001023407238   -0.5300
     16 C16       -11.0857    0.7536   60.8520 C.3     1  ZINC001023407238   -0.1300
     17 C17        -9.8555    0.9946   61.7291 C.3     1  ZINC001023407238   -0.1100
     18 H18        -9.0750    1.5080   61.1674 H       1  ZINC001023407238    0.1100
     19 C19       -10.2326    1.7892   63.0001 C.3     1  ZINC001023407238    0.0600
     20 O20        -9.3613    1.2502   64.0379 O.3     1  ZINC001023407238   -0.3500
     21 C21        -9.0921   -0.0383   63.7841 C.2     1  ZINC001023407238    0.4800
     22 O22        -8.7151   -0.8434   64.6025 O.2     1  ZINC001023407238   -0.4600
     23 C23        -9.3284   -0.3343   62.3149 C.3     1  ZINC001023407238   -0.1800
     24 C24       -12.2162   -1.2827   56.6058 C.3     1  ZINC001023407238    0.1000
     25 N25       -14.1816   -0.9331   53.6789 N.pl3   1  ZINC001023407238   -0.4200
     26 C26       -15.3375   -1.5647   54.3203 C.3     1  ZINC001023407238    0.0700
     27 C27       -14.2134    0.1920   52.9239 C.2     1  ZINC001023407238    0.0100
     28 C28       -12.9563    0.4750   52.5064 C.2     1  ZINC001023407238   -0.2000
     29 H29       -10.1006   -0.0625   53.5893 H       1  ZINC001023407238    0.0600
     30 H30       -10.3098   -1.6514   52.8148 H       1  ZINC001023407238    0.0600
     31 H31       -10.3588   -0.1685   51.8314 H       1  ZINC001023407238    0.0700
     32 H32       -12.3863   -4.3960   56.6420 H       1  ZINC001023407238    0.0800
     33 H33       -10.7008   -3.9927   56.2115 H       1  ZINC001023407238    0.0800
     34 H34       -10.4018   -4.3348   59.2184 H       1  ZINC001023407238    0.3900
     35 H35       -12.5447   -0.7299   59.2470 H       1  ZINC001023407238    0.4100
     36 H36       -11.4996    1.7110   60.5355 H       1  ZINC001023407238    0.1000
     37 H37       -11.8355    0.2039   61.4208 H       1  ZINC001023407238    0.1100
     38 H38       -10.0400    2.8523   62.8556 H       1  ZINC001023407238    0.1200
     39 H39       -11.2787    1.6225   63.2569 H       1  ZINC001023407238    0.0800
     40 H40       -10.0760   -1.1194   62.2015 H       1  ZINC001023407238    0.1100
     41 H41        -8.3956   -0.6248   61.8315 H       1  ZINC001023407238    0.1200
     42 H42       -11.9205   -0.4019   56.0356 H       1  ZINC001023407238    0.0900
     43 H43       -13.2331   -1.1688   56.9812 H       1  ZINC001023407238    0.0800
     44 H44       -15.5201   -1.0926   55.2857 H       1  ZINC001023407238    0.0800
     45 H45       -16.2155   -1.4451   53.6855 H       1  ZINC001023407238    0.0900
     46 H46       -15.1368   -2.6259   54.4669 H       1  ZINC001023407238    0.0800
     47 H47       -15.0962    0.7705   52.6957 H       1  ZINC001023407238    0.1700
     48 H48       -12.6647    1.3114   51.8883 H       1  ZINC001023407238    0.1400
@<TRIPOS>BOND
     1     1     2    1
     2     1    29    1
     3     1    30    1
     4     1    31    1
     5     2    28    1
     6     2     3    2
     7     3     4    1
     8     3    25    1
     9     4     5    2
    10     4     6   am
    11     6    24    1
    12     6     7    1
    13     7     8    1
    14     7    32    1
    15     7    33    1
    16     8     9    1
    17     8    10    1
    18     8    11    1
    19    10    34    1
    20    11    12    1
    21    11    13    1
    22    11    24    1
    23    13    14   am
    24    13    35    1
    25    14    15    2
    26    14    16    1
    27    16    17    1
    28    16    36    1
    29    16    37    1
    30    17    18    1
    31    17    23    1
    32    17    19    1
    33    19    20    1
    34    19    38    1
    35    19    39    1
    36    20    21    1
    37    21    22    2
    38    21    23    1
    39    23    40    1
    40    23    41    1
    41    24    42    1
    42    24    43    1
    43    25    26    1
    44    25    27    1
    45    26    44    1
    46    26    45    1
    47    26    46    1
    48    27    28    2
    49    27    47    1
    50    28    48    1
@<TRIPOS>SUBSTRUCTURE
     1 ZINC001023407238        1 TEMP              0 ****  ****    0 ROOT


##########                                Name:    ZINC000437443367
##########                DOCK_Rotatable_Bonds:                   8
##########                         Heavy_Atoms:                  24
##########                    Molecular_Weight:             334.434
##########                DOCK_Rotatable_Bonds:                   8
##########                       Formal_Charge:          -0.0500003
##########                     HBond_Acceptors:                   5
##########                        HBond_Donors:                   1
##########                         Heavy_Atoms:                  24
##########                          Grid_Score:          -26.044962
##########                     Grid_vdw_energy:          -24.968161
##########                      Grid_es_energy:           -1.076801
##########           Internal_energy_repulsive:           21.301605

@<TRIPOS>MOLECULE
ZINC000437443367
 51 52 1 0 0
SMALL
USER_CHARGES


@<TRIPOS>ATOM
      1 C1         -1.8932    4.4530   53.3450 C.3     1  ZINC000437443367   -0.1200
      2 C2         -2.6042    3.6415   52.2929 C.ar    1  ZINC000437443367   -0.1000
      3 C3         -3.6854    2.8566   52.6408 C.ar    1  ZINC000437443367   -0.1200
      4 C4         -4.3404    2.1086   51.6703 C.ar    1  ZINC000437443367    0.1400
      5 N5         -5.4358    1.3134   52.0202 N.am    1  ZINC000437443367   -0.6400
      6 C6         -6.6775    1.6699   51.6359 C.2     1  ZINC000437443367    0.5000
      7 O7         -6.8448    2.6813   50.9859 O.2     1  ZINC000437443367   -0.4800
      8 C8         -7.8476    0.8204   52.0097 C.2     1  ZINC000437443367    0.5100
      9 O9         -8.0851   -0.1935   51.3865 O.2     1  ZINC000437443367   -0.5200
     10 N10        -8.6398    1.1799   53.0392 N.am    1  ZINC000437443367   -0.5700
     11 C11        -9.7876    0.3466   53.4059 C.3     1  ZINC000437443367    0.0900
     12 C12       -10.8702    0.4686   52.3316 C.3     1  ZINC000437443367   -0.1200
     13 C13       -12.2038   -0.0290   52.8928 C.3     1  ZINC000437443367   -0.0900
     14 C14       -13.3401    0.3980   51.9615 C.3     1  ZINC000437443367   -0.1400
     15 C15       -12.1756   -1.5552   52.9967 C.3     1  ZINC000437443367   -0.1500
     16 C16        -8.3528    2.4038   53.7914 C.3     1  ZINC000437443367    0.1300
     17 C17        -9.4757    3.4375   53.5667 C.3     1  ZINC000437443367   -0.1300
     18 C18       -10.4226    3.2387   54.7762 C.3     1  ZINC000437443367   -0.1300
     19 C19        -9.4379    2.9627   55.9395 C.3     1  ZINC000437443367   -0.1200
     20 C20        -8.3289    2.1018   55.3001 C.3     1  ZINC000437443367   -0.1400
     21 C21        -3.9057    2.1525   50.3519 C.ar    1  ZINC000437443367   -0.1100
     22 C22        -2.8237    2.9391   50.0084 C.ar    1  ZINC000437443367   -0.1300
     23 C23        -2.1759    3.6881   50.9764 C.ar    1  ZINC000437443367    0.0800
     24 F24        -1.1177    4.4568   50.6383 F       1  ZINC000437443367   -0.1400
     25 H25        -2.3568    5.4366   53.4201 H       1  ZINC000437443367    0.0800
     26 H26        -1.9642    3.9437   54.3061 H       1  ZINC000437443367    0.0700
     27 H27        -0.8446    4.5656   53.0700 H       1  ZINC000437443367    0.0700
     28 H28        -4.0215    2.8237   53.6666 H       1  ZINC000437443367    0.1400
     29 H29        -5.3022    0.5051   52.5394 H       1  ZINC000437443367    0.4200
     30 H30        -9.4708   -0.6931   53.4862 H       1  ZINC000437443367    0.0900
     31 H31       -10.1871    0.6798   54.3638 H       1  ZINC000437443367    0.1000
     32 H32       -10.9688    1.5119   52.0319 H       1  ZINC000437443367    0.0700
     33 H33       -10.5928   -0.1335   51.4664 H       1  ZINC000437443367    0.0600
     34 H34       -12.3643    0.3997   53.8821 H       1  ZINC000437443367    0.0600
     35 H35       -13.1795   -0.0307   50.9723 H       1  ZINC000437443367    0.0600
     36 H36       -14.2901    0.0435   52.3613 H       1  ZINC000437443367    0.0400
     37 H37       -13.3601    1.4853   51.8876 H       1  ZINC000437443367    0.0600
     38 H38       -11.3661   -1.8594   53.6602 H       1  ZINC000437443367    0.0500
     39 H39       -13.1257   -1.9097   53.3965 H       1  ZINC000437443367    0.0500
     40 H40       -12.0152   -1.9838   52.0075 H       1  ZINC000437443367    0.0500
     41 H41        -7.3946    2.8183   53.4782 H       1  ZINC000437443367    0.1000
     42 H42        -9.0684    4.4485   53.5633 H       1  ZINC000437443367    0.0800
     43 H43       -10.0008    3.2336   52.6336 H       1  ZINC000437443367    0.0700
     44 H44       -11.0013    4.1426   54.9664 H       1  ZINC000437443367    0.0700
     45 H45       -11.0802    2.3844   54.6157 H       1  ZINC000437443367    0.0700
     46 H46        -9.0244    3.8969   56.3192 H       1  ZINC000437443367    0.0700
     47 H47        -9.9354    2.4122   56.7380 H       1  ZINC000437443367    0.0700
     48 H48        -8.5306    1.0447   55.4726 H       1  ZINC000437443367    0.0800
     49 H49        -7.3592    2.3706   55.7193 H       1  ZINC000437443367    0.0700
     50 H50        -4.4132    1.5717   49.5959 H       1  ZINC000437443367    0.1600
     51 H51        -2.4853    2.9736   48.9833 H       1  ZINC000437443367    0.1400
@<TRIPOS>BOND
     1     1     2    1
     2     1    25    1
     3     1    26    1
     4     1    27    1
     5     2    23   ar
     6     2     3   ar
     7     3     4   ar
     8     3    28    1
     9     4     5    1
    10     4    21   ar
    11     5     6   am
    12     5    29    1
    13     6     7    2
    14     6     8    1
    15     8     9    2
    16     8    10   am
    17    10    11    1
    18    10    16    1
    19    11    12    1
    20    11    30    1
    21    11    31    1
    22    12    13    1
    23    12    32    1
    24    12    33    1
    25    13    14    1
    26    13    15    1
    27    13    34    1
    28    14    35    1
    29    14    36    1
    30    14    37    1
    31    15    38    1
    32    15    39    1
    33    15    40    1
    34    16    20    1
    35    16    17    1
    36    16    41    1
    37    17    18    1
    38    17    42    1
    39    17    43    1
    40    18    19    1
    41    18    44    1
    42    18    45    1
    43    19    20    1
    44    19    46    1
    45    19    47    1
    46    20    48    1
    47    20    49    1
    48    21    22   ar
    49    21    50    1
    50    22    23   ar
    51    22    51    1
    52    23    24    1
@<TRIPOS>SUBSTRUCTURE
     1 ZINC000437443367        1 TEMP              0 ****  ****    0 ROOT


##########                                Name:    ZINC001345266033
##########                DOCK_Rotatable_Bonds:                   4
##########                         Heavy_Atoms:                  29
##########                    Molecular_Weight:               389.5
##########                DOCK_Rotatable_Bonds:                   4
##########                       Formal_Charge:          -0.0100001
##########                     HBond_Acceptors:                   6
##########                        HBond_Donors:                   0
##########                         Heavy_Atoms:                  29
##########                          Grid_Score:          -25.973131
##########                     Grid_vdw_energy:          -25.527100
##########                      Grid_es_energy:           -0.446032
##########           Internal_energy_repulsive:            8.462407

@<TRIPOS>MOLECULE
ZINC001345266033
 56 61 1 0 0
SMALL
USER_CHARGES


@<TRIPOS>ATOM
      1 C1        -10.4069   -0.1792   52.4494 C.ar    1  ZINC001345266033   -0.1100
      2 C2        -11.5922   -0.3581   53.1581 C.ar    1  ZINC001345266033   -0.0900
      3 C3        -11.7286    0.1189   54.4293 C.ar    1  ZINC001345266033   -0.1100
      4 C4        -10.6625    0.7958   55.0264 C.ar    1  ZINC001345266033    0.0000
      5 C5         -9.4529    0.9800   54.3083 C.ar    1  ZINC001345266033   -0.1100
      6 C6         -9.3481    0.4763   53.0025 C.ar    1  ZINC001345266033   -0.0900
      7 C7         -8.3970    1.6635   54.9325 C.ar    1  ZINC001345266033    0.1700
      8 N8         -8.5214    2.1240   56.1539 N.ar    1  ZINC001345266033   -0.4800
      9 C9         -9.6180    1.9888   56.8809 C.ar    1  ZINC001345266033    0.0900
     10 C10       -10.7372    1.3332   56.3844 C.ar    1  ZINC001345266033   -0.0700
     11 C11       -11.9585    1.1845   57.1984 C.2     1  ZINC001345266033    0.2300
     12 N12       -12.8525    2.1159   57.4432 N.2     1  ZINC001345266033   -0.2600
     13 N13       -13.7869    1.6412   58.1869 N.2     1  ZINC001345266033   -0.3000
     14 C14       -13.5474    0.3788   58.4625 C.2     1  ZINC001345266033    0.3600
     15 N15       -14.3349   -0.4557   59.2357 N.3     1  ZINC001345266033   -0.4600
     16 C16       -14.8875    0.2633   60.3901 C.3     1  ZINC001345266033    0.0600
     17 C17       -15.5664   -0.7237   61.3418 C.3     1  ZINC001345266033   -0.1100
     18 C18       -16.7354   -1.4007   60.6163 C.3     1  ZINC001345266033   -0.0800
     19 C19       -16.2084   -2.0212   59.3180 C.3     1  ZINC001345266033   -0.1300
     20 C20       -15.7890   -3.4900   59.3512 C.3     1  ZINC001345266033   -0.1600
     21 C21       -17.0738   -3.0756   58.6304 C.3     1  ZINC001345266033   -0.1700
     22 C22       -15.4019   -1.0685   58.4306 C.3     1  ZINC001345266033    0.1100
     23 N23       -12.3804    0.0422   57.8399 N.pl3   1  ZINC001345266033   -0.4600
     24 C24       -11.7118   -1.2612   57.8578 C.3     1  ZINC001345266033    0.1000
     25 C25       -11.1166   -1.5099   59.2452 C.3     1  ZINC001345266033   -0.1400
     26 H26       -11.9033   -1.5266   59.9994 H       1  ZINC001345266033    0.1000
     27 C27       -10.0633   -0.4274   59.5848 C.3     1  ZINC001345266033   -0.1500
     28 C28        -8.9537   -1.2597   60.2766 C.3     1  ZINC001345266033    0.0500
     29 O29        -8.9490   -2.4979   59.5339 O.3     1  ZINC001345266033   -0.3700
     30 C30       -10.3240   -2.8313   59.2632 C.3     1  ZINC001345266033    0.0300
     31 H31       -10.3239   -0.5704   51.4461 H       1  ZINC001345266033    0.1300
     32 H32       -12.4154   -0.8817   52.6949 H       1  ZINC001345266033    0.1300
     33 H33       -12.6529   -0.0253   54.9689 H       1  ZINC001345266033    0.1600
     34 H34        -8.4351    0.6068   52.4406 H       1  ZINC001345266033    0.1400
     35 H35        -7.4695    1.8117   54.3993 H       1  ZINC001345266033    0.1700
     36 H36        -9.6435    2.3960   57.8809 H       1  ZINC001345266033    0.1700
     37 H37       -14.0828    0.7775   60.9154 H       1  ZINC001345266033    0.0700
     38 H38       -15.6183    0.9947   60.0452 H       1  ZINC001345266033    0.0500
     39 H39       -14.8469   -1.4792   61.6571 H       1  ZINC001345266033    0.0800
     40 H40       -15.9404   -0.1890   62.2149 H       1  ZINC001345266033    0.0800
     41 H41       -17.1572   -2.1809   61.2500 H       1  ZINC001345266033    0.0700
     42 H42       -17.5005   -0.6601   60.3839 H       1  ZINC001345266033    0.0700
     43 H43       -14.9391   -3.7849   58.7356 H       1  ZINC001345266033    0.0900
     44 H44       -15.8916   -4.0215   60.2972 H       1  ZINC001345266033    0.0900
     45 H45       -18.0217   -3.3345   59.1022 H       1  ZINC001345266033    0.1000
     46 H46       -17.0692   -3.0979   57.5406 H       1  ZINC001345266033    0.1000
     47 H47       -16.0576   -0.2901   58.0403 H       1  ZINC001345266033    0.0600
     48 H48       -14.9611   -1.6253   57.6036 H       1  ZINC001345266033    0.0800
     49 H49       -12.4347   -2.0437   57.6270 H       1  ZINC001345266033    0.1100
     50 H50       -10.9155   -1.2713   57.1137 H       1  ZINC001345266033    0.1100
     51 H51        -9.6862    0.0464   58.6786 H       1  ZINC001345266033    0.0800
     52 H52       -10.4753    0.3154   60.2680 H       1  ZINC001345266033    0.0900
     53 H53        -7.9894   -0.7584   60.1932 H       1  ZINC001345266033    0.1000
     54 H54        -9.2045   -1.4402   61.3219 H       1  ZINC001345266033    0.0600
     55 H55       -10.7074   -3.4863   60.0455 H       1  ZINC001345266033    0.0600
     56 H56       -10.4021   -3.3234   58.2937 H       1  ZINC001345266033    0.0900
@<TRIPOS>BOND
     1     1     6   ar
     2     1     2   ar
     3     1    31    1
     4     2     3   ar
     5     2    32    1
     6     3     4   ar
     7     3    33    1
     8     4    10   ar
     9     4     5   ar
    10     5     6   ar
    11     5     7   ar
    12     6    34    1
    13     7     8   ar
    14     7    35    1
    15     8     9   ar
    16     9    10   ar
    17     9    36    1
    18    10    11    1
    19    11    23    1
    20    11    12    2
    21    12    13    1
    22    13    14    2
    23    14    15    1
    24    14    23    1
    25    15    22    1
    26    15    16    1
    27    16    17    1
    28    16    37    1
    29    16    38    1
    30    17    18    1
    31    17    39    1
    32    17    40    1
    33    18    19    1
    34    18    41    1
    35    18    42    1
    36    19    21    1
    37    19    20    1
    38    19    22    1
    39    20    21    1
    40    20    43    1
    41    20    44    1
    42    21    45    1
    43    21    46    1
    44    22    47    1
    45    22    48    1
    46    23    24    1
    47    24    25    1
    48    24    49    1
    49    24    50    1
    50    25    26    1
    51    25    30    1
    52    25    27    1
    53    27    28    1
    54    27    51    1
    55    27    52    1
    56    28    29    1
    57    28    53    1
    58    28    54    1
    59    29    30    1
    60    30    55    1
    61    30    56    1
@<TRIPOS>SUBSTRUCTURE
     1 ZINC001345266033        1 TEMP              0 ****  ****    0 ROOT


##########                                Name:    ZINC000463474628
##########                DOCK_Rotatable_Bonds:                   5
##########                         Heavy_Atoms:                  25
##########                    Molecular_Weight:              407.35
##########                DOCK_Rotatable_Bonds:                   5
##########                       Formal_Charge:           0.0200004
##########                     HBond_Acceptors:                   4
##########                        HBond_Donors:                   0
##########                         Heavy_Atoms:                  25
##########                          Grid_Score:          -25.963074
##########                     Grid_vdw_energy:          -24.720598
##########                      Grid_es_energy:           -1.242475
##########           Internal_energy_repulsive:           34.896626

@<TRIPOS>MOLECULE
ZINC000463474628
 52 54 1 0 0
SMALL
USER_CHARGES


@<TRIPOS>ATOM
      1 C1         -5.6449    5.9820   55.1482 C.3     1  ZINC000463474628   -0.1400
      2 C2         -4.7820    5.4953   53.9823 C.3     1  ZINC000463474628   -0.1300
      3 C3         -3.8700    4.3637   54.4603 C.3     1  ZINC000463474628    0.1400
      4 H4         -4.4722    3.5277   54.8159 H       1  ZINC000463474628    0.0800
      5 C5         -2.9545    4.8710   55.5943 C.3     1  ZINC000463474628   -0.1300
      6 C6         -1.6060    4.1645   55.2947 C.3     1  ZINC000463474628   -0.1300
      7 C7         -1.5958    4.1580   53.7456 C.3     1  ZINC000463474628    0.0900
      8 N8         -3.0020    3.9219   53.3589 N.am    1  ZINC000463474628   -0.6100
      9 C9         -3.4173    3.3922   52.1913 C.2     1  ZINC000463474628    0.5300
     10 O10        -2.6060    3.0643   51.3515 O.2     1  ZINC000463474628   -0.5100
     11 C11        -4.8898    3.2073   51.9292 C.3     1  ZINC000463474628   -0.1200
     12 H12        -5.4427    3.3241   52.8612 H       1  ZINC000463474628    0.1000
     13 C13        -5.1357    1.8076   51.3614 C.3     1  ZINC000463474628   -0.1000
     14 C14        -6.6345    1.6070   51.1256 C.3     1  ZINC000463474628   -0.1300
     15 C15        -7.1290    2.6366   50.1046 C.3     1  ZINC000463474628    0.0900
     16 N16        -6.7667    3.9805   50.5750 N.am    1  ZINC000463474628   -0.6000
     17 C17        -7.7028    4.9433   50.6902 C.2     1  ZINC000463474628    0.5700
     18 O18        -7.3903    6.0513   51.0806 O.2     1  ZINC000463474628   -0.5200
     19 C19        -9.1093    4.6519   50.3420 C.ar    1  ZINC000463474628   -0.1200
     20 C20        -9.5391    4.7543   49.0179 C.ar    1  ZINC000463474628   -0.0800
     21 C21       -10.8529    4.4812   48.6992 C.ar    1  ZINC000463474628   -0.1000
     22 C22       -11.7449    4.1060   49.6895 C.ar    1  ZINC000463474628   -0.0700
     23 Br23      -13.5442    3.7326   49.2439 Br      1  ZINC000463474628   -0.0400
     24 C24       -11.3244    4.0026   51.0051 C.ar    1  ZINC000463474628   -0.0900
     25 C25       -10.0122    4.2675   51.3353 C.ar    1  ZINC000463474628   -0.0300
     26 C26        -9.5564    4.1547   52.7672 C.3     1  ZINC000463474628   -0.1300
     27 C27        -5.3647    4.2556   50.9180 C.3     1  ZINC000463474628    0.1200
     28 H28        -6.5145    5.3331   55.2522 H       1  ZINC000463474628    0.0700
     29 H29        -5.0606    5.9565   56.0680 H       1  ZINC000463474628    0.0600
     30 H30        -5.9743    7.0029   54.9551 H       1  ZINC000463474628    0.0300
     31 H31        -5.4254    5.1299   53.1819 H       1  ZINC000463474628    0.0600
     32 H32        -4.1736    6.3202   53.6115 H       1  ZINC000463474628    0.0700
     33 H33        -2.8420    5.9540   55.5438 H       1  ZINC000463474628    0.0800
     34 H34        -3.3411    4.5673   56.5672 H       1  ZINC000463474628    0.0800
     35 H35        -0.7678    4.7392   55.6886 H       1  ZINC000463474628    0.0900
     36 H36        -1.6010    3.1486   55.6897 H       1  ZINC000463474628    0.0800
     37 H37        -1.2526    5.1197   53.3645 H       1  ZINC000463474628    0.0700
     38 H38        -0.9613    3.3534   53.3739 H       1  ZINC000463474628    0.0800
     39 H39        -4.6019    1.6997   50.4172 H       1  ZINC000463474628    0.0800
     40 H40        -4.7763    1.0604   52.0689 H       1  ZINC000463474628    0.0700
     41 H41        -6.8113    0.6017   50.7432 H       1  ZINC000463474628    0.0800
     42 H42        -7.1714    1.7391   52.0649 H       1  ZINC000463474628    0.0700
     43 H43        -6.6595    2.4485   49.1392 H       1  ZINC000463474628    0.0800
     44 H44        -8.2122    2.5633   50.0071 H       1  ZINC000463474628    0.1000
     45 H45        -8.8443    5.0473   48.2446 H       1  ZINC000463474628    0.1400
     46 H46       -11.1867    4.5604   47.6751 H       1  ZINC000463474628    0.1400
     47 H47       -12.0249    3.7099   51.7733 H       1  ZINC000463474628    0.1400
     48 H48        -9.1216    3.1691   52.9336 H       1  ZINC000463474628    0.0700
     49 H49        -8.8087    4.9209   52.9721 H       1  ZINC000463474628    0.0900
     50 H50       -10.4092    4.2923   53.4320 H       1  ZINC000463474628    0.0700
     51 H51        -5.2841    5.2502   51.3565 H       1  ZINC000463474628    0.1000
     52 H52        -4.7508    4.1994   50.0190 H       1  ZINC000463474628    0.0800
@<TRIPOS>BOND
     1     1     2    1
     2     1    28    1
     3     1    29    1
     4     1    30    1
     5     2     3    1
     6     2    31    1
     7     2    32    1
     8     3     4    1
     9     3     8    1
    10     3     5    1
    11     5     6    1
    12     5    33    1
    13     5    34    1
    14     6     7    1
    15     6    35    1
    16     6    36    1
    17     7     8    1
    18     7    37    1
    19     7    38    1
    20     8     9   am
    21     9    10    2
    22     9    11    1
    23    11    12    1
    24    11    27    1
    25    11    13    1
    26    13    14    1
    27    13    39    1
    28    13    40    1
    29    14    15    1
    30    14    41    1
    31    14    42    1
    32    15    16    1
    33    15    43    1
    34    15    44    1
    35    16    17   am
    36    16    27    1
    37    17    18    2
    38    17    19    1
    39    19    25   ar
    40    19    20   ar
    41    20    21   ar
    42    20    45    1
    43    21    22   ar
    44    21    46    1
    45    22    23    1
    46    22    24   ar
    47    24    25   ar
    48    24    47    1
    49    25    26    1
    50    26    48    1
    51    26    49    1
    52    26    50    1
    53    27    51    1
    54    27    52    1
@<TRIPOS>SUBSTRUCTURE
     1 ZINC000463474628        1 TEMP              0 ****  ****    0 ROOT


##########                                Name:    ZINC000951315041
##########                DOCK_Rotatable_Bonds:                   5
##########                         Heavy_Atoms:                  25
##########                    Molecular_Weight:             340.382
##########                DOCK_Rotatable_Bonds:                   5
##########                       Formal_Charge:          0.00999974
##########                     HBond_Acceptors:                   7
##########                        HBond_Donors:                   1
##########                         Heavy_Atoms:                  25
##########                          Grid_Score:          -25.896521
##########                     Grid_vdw_energy:          -25.981659
##########                      Grid_es_energy:            0.085138
##########           Internal_energy_repulsive:           11.895254

@<TRIPOS>MOLECULE
ZINC000951315041
 45 47 1 0 0
SMALL
USER_CHARGES


@<TRIPOS>ATOM
      1 C1        -13.1698   -2.1928   56.0384 C.3     1  ZINC000951315041    0.0500
      2 N2        -12.9369   -1.6423   54.7010 N.am    1  ZINC000951315041   -0.4900
      3 C3        -11.6874   -1.3038   54.3324 C.2     1  ZINC000951315041    0.1700
      4 C4        -11.4450   -0.7831   53.0776 C.2     1  ZINC000951315041   -0.2400
      5 C5        -10.0744   -0.4139   52.6785 C.2     1  ZINC000951315041    0.5800
      6 O6         -9.5122   -1.0295   51.7932 O.2     1  ZINC000951315041   -0.5200
      7 N7         -9.4446    0.6059   53.2948 N.am    1  ZINC000951315041   -0.6000
      8 C8        -10.1107    1.3592   54.3661 C.3     1  ZINC000951315041    0.1100
      9 C9        -10.0659    2.8511   54.0212 C.3     1  ZINC000951315041   -0.1300
     10 C10        -8.6155    3.2685   53.7674 C.3     1  ZINC000951315041   -0.1300
     11 C11        -8.0567    2.4813   52.5799 C.3     1  ZINC000951315041    0.1300
     12 H12        -8.6693    2.6692   51.6981 H       1  ZINC000951315041    0.1000
     13 N13        -6.6790    2.9047   52.3174 N.am    1  ZINC000951315041   -0.7200
     14 C14        -6.0887    2.5902   51.1473 C.2     1  ZINC000951315041    0.5700
     15 O15        -6.6990    1.9541   50.3104 O.2     1  ZINC000951315041   -0.5200
     16 C16        -4.6990    3.0190   50.8817 C.ar    1  ZINC000951315041   -0.1900
     17 C17        -3.9895    3.7626   51.8322 C.ar    1  ZINC000951315041   -0.0100
     18 C18        -2.6913    4.1388   51.5349 C.ar    1  ZINC000951315041   -0.1800
     19 C19        -2.1415    3.7717   50.3201 C.ar    1  ZINC000951315041    0.1300
     20 N20        -2.8344    3.0707   49.4427 N.ar    1  ZINC000951315041   -0.4900
     21 C21        -4.0702    2.6844   49.6816 C.ar    1  ZINC000951315041    0.1400
     22 C22        -8.0766    0.9815   52.9124 C.3     1  ZINC000951315041    0.1000
     23 C23       -12.5226   -0.6066   52.1762 C.2     1  ZINC000951315041    0.0100
     24 C24       -13.7762   -0.9560   52.5706 C.2     1  ZINC000951315041   -0.2300
     25 C25       -13.9745   -1.4880   53.8585 C.2     1  ZINC000951315041    0.5100
     26 O26       -15.0969   -1.8034   54.2168 O.2     1  ZINC000951315041   -0.5400
     27 H27       -14.2304   -2.4124   56.1613 H       1  ZINC000951315041    0.1100
     28 H28       -12.5926   -3.1095   56.1595 H       1  ZINC000951315041    0.0800
     29 H29       -12.8598   -1.4663   56.7894 H       1  ZINC000951315041    0.0800
     30 H30       -10.8689   -1.4405   55.0236 H       1  ZINC000951315041    0.1700
     31 H31       -11.1478    1.0346   54.4506 H       1  ZINC000951315041    0.1000
     32 H32        -9.5937    1.1866   55.3100 H       1  ZINC000951315041    0.0700
     33 H33       -10.6596    3.0355   53.1259 H       1  ZINC000951315041    0.0700
     34 H34       -10.4707    3.4289   54.8520 H       1  ZINC000951315041    0.0900
     35 H35        -8.5782    4.3351   53.5458 H       1  ZINC000951315041    0.0800
     36 H36        -8.0173    3.0610   54.6546 H       1  ZINC000951315041    0.0700
     37 H37        -6.1916    3.4113   52.9857 H       1  ZINC000951315041    0.4000
     38 H38        -4.4438    4.0359   52.7732 H       1  ZINC000951315041    0.1500
     39 H39        -2.1138    4.7133   52.2440 H       1  ZINC000951315041    0.1500
     40 H40        -1.1286    4.0641   50.0855 H       1  ZINC000951315041    0.1600
     41 H41        -4.6051    2.1113   48.9386 H       1  ZINC000951315041    0.1600
     42 H42        -7.3928    0.7809   53.7371 H       1  ZINC000951315041    0.0700
     43 H43        -7.7733    0.4089   52.0359 H       1  ZINC000951315041    0.0900
     44 H44       -12.3516   -0.2001   51.1903 H       1  ZINC000951315041    0.1400
     45 H45       -14.6128   -0.8295   51.8993 H       1  ZINC000951315041    0.1600
@<TRIPOS>BOND
     1     1     2    1
     2     1    27    1
     3     1    28    1
     4     1    29    1
     5     2    25   am
     6     2     3    1
     7     3     4    2
     8     3    30    1
     9     4     5    1
    10     4    23    1
    11     5     6    2
    12     5     7   am
    13     7    22    1
    14     7     8    1
    15     8     9    1
    16     8    31    1
    17     8    32    1
    18     9    10    1
    19     9    33    1
    20     9    34    1
    21    10    11    1
    22    10    35    1
    23    10    36    1
    24    11    12    1
    25    11    13    1
    26    11    22    1
    27    13    14   am
    28    13    37    1
    29    14    15    2
    30    14    16    1
    31    16    21   ar
    32    16    17   ar
    33    17    18   ar
    34    17    38    1
    35    18    19   ar
    36    18    39    1
    37    19    20   ar
    38    19    40    1
    39    20    21   ar
    40    21    41    1
    41    22    42    1
    42    22    43    1
    43    23    24    2
    44    23    44    1
    45    24    25    1
    46    24    45    1
    47    25    26    2
@<TRIPOS>SUBSTRUCTURE
     1 ZINC000951315041        1 TEMP              0 ****  ****    0 ROOT


##########                                Name:    ZINC000438893617
##########                DOCK_Rotatable_Bonds:                   5
##########                         Heavy_Atoms:                  29
##########                    Molecular_Weight:             412.596
##########                DOCK_Rotatable_Bonds:                   5
##########                       Formal_Charge:           0.0600001
##########                     HBond_Acceptors:                   5
##########                        HBond_Donors:                   0
##########                         Heavy_Atoms:                  29
##########                          Grid_Score:          -25.796988
##########                     Grid_vdw_energy:          -24.630360
##########                      Grid_es_energy:           -1.166629
##########           Internal_energy_repulsive:          171.389297

@<TRIPOS>MOLECULE
ZINC000438893617
 61 66 1 0 0
SMALL
USER_CHARGES


@<TRIPOS>ATOM
      1 C1        -10.8098    3.4704   64.1374 C.3     1  ZINC000438893617   -0.1000
      2 C2        -12.1595    2.9275   63.7443 C.2     1  ZINC000438893617   -0.0900
      3 C3        -12.3019    1.8480   62.9738 C.2     1  ZINC000438893617   -0.1600
      4 C4        -11.1704    1.0349   62.3997 C.3     1  ZINC000438893617   -0.0400
      5 H5        -10.7312    0.2992   63.0735 H       1  ZINC000438893617    0.1400
      6 C6        -10.2373    1.7270   61.4042 C.3     1  ZINC000438893617   -0.1400
      7 C7        -11.2393    0.6792   60.9134 C.3     1  ZINC000438893617   -0.1800
      8 H8        -12.1029    1.0334   60.3505 H       1  ZINC000438893617    0.1300
      9 C9        -10.6943   -0.6613   60.4921 C.2     1  ZINC000438893617    0.5500
     10 O10       -10.3239   -1.4558   61.3301 O.2     1  ZINC000438893617   -0.5300
     11 N11       -10.6185   -0.9769   59.1840 N.am    1  ZINC000438893617   -0.6100
     12 C12       -10.0933   -2.2819   58.7587 C.3     1  ZINC000438893617    0.0900
     13 C13       -11.1407   -2.9661   57.8714 C.3     1  ZINC000438893617    0.1000
     14 N14       -11.5824   -2.0116   56.8449 N.am    1  ZINC000438893617   -0.6100
     15 C15       -11.5075   -2.3277   55.5368 C.2     1  ZINC000438893617    0.5300
     16 O16       -11.0725   -3.4079   55.1979 O.2     1  ZINC000438893617   -0.5300
     17 C17       -11.9642   -1.3387   54.4954 C.3     1  ZINC000438893617   -0.0700
     18 C18       -11.8168   -1.9583   53.1043 C.3     1  ZINC000438893617   -0.1100
     19 C19       -12.2805   -0.9543   52.0471 C.3     1  ZINC000438893617   -0.0800
     20 C20       -11.4247    0.3109   52.1352 C.3     1  ZINC000438893617   -0.1100
     21 C21       -11.5721    0.9305   53.5263 C.3     1  ZINC000438893617   -0.0800
     22 C22       -13.0390    1.2890   53.7721 C.3     1  ZINC000438893617   -0.1100
     23 C23       -13.8949    0.0239   53.6840 C.3     1  ZINC000438893617   -0.0900
     24 C24       -13.7475   -0.5957   52.2928 C.3     1  ZINC000438893617   -0.1100
     25 C25       -13.4312   -0.9803   54.7412 C.3     1  ZINC000438893617   -0.0900
     26 C26       -11.1083   -0.0735   54.5835 C.3     1  ZINC000438893617   -0.1200
     27 C27       -12.1075   -0.7066   57.2702 C.3     1  ZINC000438893617    0.0700
     28 C28       -11.0653   -0.0246   58.1577 C.3     1  ZINC000438893617    0.1000
     29 S29       -14.0124    1.5183   62.7309 S.3     1  ZINC000438893617    0.1000
     30 C30       -14.4509    2.9060   63.7185 C.2     1  ZINC000438893617   -0.2100
     31 C31       -13.3455    3.5080   64.1600 C.2     1  ZINC000438893617   -0.1300
     32 H32       -10.4861    3.0012   65.0665 H       1  ZINC000438893617    0.0700
     33 H33       -10.0876    3.2538   63.3502 H       1  ZINC000438893617    0.0700
     34 H34       -10.8794    4.5488   64.2801 H       1  ZINC000438893617    0.0700
     35 H35       -10.4418    2.7704   61.1644 H       1  ZINC000438893617    0.1100
     36 H36        -9.1841    1.4463   61.4227 H       1  ZINC000438893617    0.1100
     37 H37        -9.1723   -2.1391   58.1935 H       1  ZINC000438893617    0.0800
     38 H38        -9.8959   -2.9000   59.6345 H       1  ZINC000438893617    0.1000
     39 H39       -10.6996   -3.8403   57.3925 H       1  ZINC000438893617    0.1100
     40 H40       -11.9929   -3.2699   58.4793 H       1  ZINC000438893617    0.0700
     41 H41       -10.7717   -2.2137   52.9292 H       1  ZINC000438893617    0.0800
     42 H42       -12.4266   -2.8597   53.0416 H       1  ZINC000438893617    0.0700
     43 H43       -12.1754   -1.3957   51.0560 H       1  ZINC000438893617    0.0800
     44 H44       -10.3795    0.0556   51.9601 H       1  ZINC000438893617    0.0600
     45 H45       -11.7550    1.0262   51.3820 H       1  ZINC000438893617    0.0700
     46 H46       -10.9624    1.8318   53.5891 H       1  ZINC000438893617    0.0800
     47 H47       -13.1441    1.7304   54.7632 H       1  ZINC000438893617    0.0600
     48 H48       -13.3694    2.0043   53.0190 H       1  ZINC000438893617    0.0700
     49 H49       -14.9400    0.2792   53.8592 H       1  ZINC000438893617    0.0700
     50 H50       -14.0778    0.1195   51.5397 H       1  ZINC000438893617    0.0700
     51 H51       -14.3572   -1.4971   52.2301 H       1  ZINC000438893617    0.0600
     52 H52       -14.0409   -1.8816   54.6785 H       1  ZINC000438893617    0.0700
     53 H53       -13.5362   -0.5389   55.7324 H       1  ZINC000438893617    0.0700
     54 H54       -11.2134    0.3679   55.5747 H       1  ZINC000438893617    0.0700
     55 H55       -10.0633   -0.3289   54.4085 H       1  ZINC000438893617    0.0800
     56 H56       -12.3049   -0.0886   56.3944 H       1  ZINC000438893617    0.1300
     57 H57       -13.0286   -0.8495   57.8353 H       1  ZINC000438893617    0.0800
     58 H58       -11.5076    0.8494   58.6358 H       1  ZINC000438893617    0.1100
     59 H59       -10.2117    0.2795   57.5519 H       1  ZINC000438893617    0.0700
     60 H60       -15.4607    3.2200   63.9377 H       1  ZINC000438893617    0.1700
     61 H61       -13.3735    4.3864   64.7877 H       1  ZINC000438893617    0.1400
@<TRIPOS>BOND
     1     1     2    1
     2     1    32    1
     3     1    33    1
     4     1    34    1
     5     2    31    1
     6     2     3    2
     7     3     4    1
     8     3    29    1
     9     4     5    1
    10     4     7    1
    11     4     6    1
    12     6     7    1
    13     6    35    1
    14     6    36    1
    15     7     8    1
    16     7     9    1
    17     9    10    2
    18     9    11   am
    19    11    28    1
    20    11    12    1
    21    12    13    1
    22    12    37    1
    23    12    38    1
    24    13    14    1
    25    13    39    1
    26    13    40    1
    27    14    15   am
    28    14    27    1
    29    15    16    2
    30    15    17    1
    31    17    25    1
    32    17    26    1
    33    17    18    1
    34    18    19    1
    35    18    41    1
    36    18    42    1
    37    19    24    1
    38    19    20    1
    39    19    43    1
    40    20    21    1
    41    20    44    1
    42    20    45    1
    43    21    22    1
    44    21    26    1
    45    21    46    1
    46    22    23    1
    47    22    47    1
    48    22    48    1
    49    23    24    1
    50    23    25    1
    51    23    49    1
    52    24    50    1
    53    24    51    1
    54    25    52    1
    55    25    53    1
    56    26    54    1
    57    26    55    1
    58    27    28    1
    59    27    56    1
    60    27    57    1
    61    28    58    1
    62    28    59    1
    63    29    30    1
    64    30    31    2
    65    30    60    1
    66    31    61    1
@<TRIPOS>SUBSTRUCTURE
     1 ZINC000438893617        1 TEMP              0 ****  ****    0 ROOT


##########                                Name:    ZINC000535362552
##########                DOCK_Rotatable_Bonds:                   5
##########                         Heavy_Atoms:                  26
##########                    Molecular_Weight:             416.228
##########                DOCK_Rotatable_Bonds:                   5
##########                       Formal_Charge:         -0.00999981
##########                     HBond_Acceptors:                   6
##########                        HBond_Donors:                   1
##########                         Heavy_Atoms:                  26
##########                          Grid_Score:          -25.769247
##########                     Grid_vdw_energy:          -24.970182
##########                      Grid_es_energy:           -0.799065
##########           Internal_energy_repulsive:            3.459262

@<TRIPOS>MOLECULE
ZINC000535362552
 40 43 1 0 0
SMALL
USER_CHARGES


@<TRIPOS>ATOM
      1 C1         -6.6322    3.0774   49.8625 C.3     1  ZINC000535362552    0.0300
      2 O2         -6.9180    3.0575   51.2859 O.3     1  ZINC000535362552   -0.3400
      3 C3         -7.6624    2.0316   51.7466 C.2     1  ZINC000535362552    0.5500
      4 O4         -8.0272    1.1557   50.9863 O.2     1  ZINC000535362552   -0.4800
      5 C5         -8.0324    1.9725   53.1660 C.2     1  ZINC000535362552   -0.0100
      6 C6         -8.8195    1.0189   53.7300 C.2     1  ZINC000535362552   -0.0900
      7 C7         -8.9136    1.3587   55.1492 C.ar    1  ZINC000535362552   -0.1300
      8 C8         -9.5624    0.7849   56.2449 C.ar    1  ZINC000535362552   -0.0600
      9 C9         -9.4456    1.3726   57.4905 C.ar    1  ZINC000535362552    0.1200
     10 N10       -10.0926    0.8034   58.5953 N.am    1  ZINC000535362552   -0.6700
     11 C11        -9.4584   -0.1190   59.3460 C.2     1  ZINC000535362552    0.5200
     12 O12        -8.3277   -0.4564   59.0652 O.2     1  ZINC000535362552   -0.5000
     13 C13       -10.1543   -0.7311   60.5343 C.3     1  ZINC000535362552   -0.1000
     14 H14        -9.6883   -1.6768   60.8116 H       1  ZINC000535362552    0.1300
     15 C15       -10.1703    0.2490   61.7311 C.3     1  ZINC000535362552    0.0600
     16 O16       -11.4535   -0.0001   62.3296 O.3     1  ZINC000535362552   -0.2900
     17 C17       -12.3167   -0.4403   61.3730 C.ar    1  ZINC000535362552    0.1300
     18 C18       -13.7087   -0.4721   61.3730 C.ar    1  ZINC000535362552   -0.1300
     19 C19       -14.3924   -0.9758   60.2856 C.ar    1  ZINC000535362552   -0.0500
     20 C20       -13.7021   -1.4540   59.1864 C.ar    1  ZINC000535362552   -0.1200
     21 Br21      -14.6451   -2.1480   57.7016 Br      1  ZINC000535362552   -0.0400
     22 C22       -12.3178   -1.4220   59.1774 C.ar    1  ZINC000535362552   -0.0100
     23 C23       -11.6341   -0.9162   60.2597 C.ar    1  ZINC000535362552   -0.1600
     24 C24        -8.6854    2.5300   57.6502 C.ar    1  ZINC000535362552   -0.0900
     25 C25        -8.0430    3.1027   56.5751 C.ar    1  ZINC000535362552   -0.0900
     26 C26        -8.1467    2.5276   55.3139 C.ar    1  ZINC000535362552    0.0700
     27 O27        -7.6374    2.8534   54.1089 O.3     1  ZINC000535362552   -0.1700
     28 H28        -7.5676    3.1208   49.3047 H       1  ZINC000535362552    0.0700
     29 H29        -6.0271    3.9526   49.6257 H       1  ZINC000535362552    0.1100
     30 H30        -6.0873    2.1741   49.5886 H       1  ZINC000535362552    0.0700
     31 H31        -9.2824    0.1804   53.2310 H       1  ZINC000535362552    0.1800
     32 H32       -10.1513   -0.1117   56.1197 H       1  ZINC000535362552    0.1400
     33 H33       -10.9968    1.0734   58.8199 H       1  ZINC000535362552    0.4100
     34 H34        -9.3667    0.0180   62.4303 H       1  ZINC000535362552    0.1200
     35 H35       -10.0987    1.2807   61.3863 H       1  ZINC000535362552    0.0900
     36 H36       -14.2553   -0.1009   62.2273 H       1  ZINC000535362552    0.1400
     37 H37       -15.4722   -0.9973   60.2928 H       1  ZINC000535362552    0.1400
     38 H38       -11.7744   -1.7942   58.3215 H       1  ZINC000535362552    0.1400
     39 H39        -8.5997    2.9825   58.6271 H       1  ZINC000535362552    0.1500
     40 H40        -7.4575    3.9998   56.7120 H       1  ZINC000535362552    0.1500
@<TRIPOS>BOND
     1     1     2    1
     2     1    28    1
     3     1    29    1
     4     1    30    1
     5     2     3    1
     6     3     4    2
     7     3     5    1
     8     5    27    1
     9     5     6    2
    10     6     7    1
    11     6    31    1
    12     7    26   ar
    13     7     8   ar
    14     8     9   ar
    15     8    32    1
    16     9    10    1
    17     9    24   ar
    18    10    11   am
    19    10    33    1
    20    11    12    2
    21    11    13    1
    22    13    14    1
    23    13    23    1
    24    13    15    1
    25    15    16    1
    26    15    34    1
    27    15    35    1
    28    16    17    1
    29    17    23   ar
    30    17    18   ar
    31    18    19   ar
    32    18    36    1
    33    19    20   ar
    34    19    37    1
    35    20    21    1
    36    20    22   ar
    37    22    23   ar
    38    22    38    1
    39    24    25   ar
    40    24    39    1
    41    25    26   ar
    42    25    40    1
    43    26    27    1
@<TRIPOS>SUBSTRUCTURE
     1 ZINC000535362552        1 TEMP              0 ****  ****    0 ROOT


##########                                Name:    ZINC000337709254
##########                DOCK_Rotatable_Bonds:                   7
##########                         Heavy_Atoms:                  22
##########                    Molecular_Weight:              329.42
##########                DOCK_Rotatable_Bonds:                   7
##########                       Formal_Charge:           0.0300004
##########                     HBond_Acceptors:                   8
##########                        HBond_Donors:                   2
##########                         Heavy_Atoms:                  22
##########                          Grid_Score:          -25.756584
##########                     Grid_vdw_energy:          -24.984415
##########                      Grid_es_energy:           -0.772170
##########           Internal_energy_repulsive:           10.020053

@<TRIPOS>MOLECULE
ZINC000337709254
 45 46 1 0 0
SMALL
USER_CHARGES


@<TRIPOS>ATOM
      1 C1         -9.0411   -0.2718   62.0063 C.3     1  ZINC000337709254   -0.6700
      2 S2         -9.3582   -0.9765   60.3651 S.o2    1  ZINC000337709254    2.6100
      3 O3         -8.6210   -0.2775   59.3715 O.2     1  ZINC000337709254   -0.9500
      4 O4         -9.3481   -2.3963   60.4218 O.2     1  ZINC000337709254   -0.9500
      5 N5        -10.9374   -0.5917   60.0483 N.am    1  ZINC000337709254   -1.1200
      6 C6        -11.5531   -1.0065   58.7853 C.3     1  ZINC000337709254    0.1200
      7 C7        -12.5433   -2.1426   59.0496 C.3     1  ZINC000337709254   -0.1100
      8 H8        -12.1022   -2.8847   59.7152 H       1  ZINC000337709254    0.1100
      9 C9        -13.8576   -1.5871   59.6522 C.3     1  ZINC000337709254   -0.1200
     10 C10       -14.8904   -2.6822   59.2875 C.3     1  ZINC000337709254   -0.1200
     11 C11       -14.4743   -3.1392   57.8741 C.3     1  ZINC000337709254   -0.1400
     12 C12       -12.9792   -2.7984   57.7231 C.3     1  ZINC000337709254    0.1500
     13 H13       -12.4050   -3.7079   57.5457 H       1  ZINC000337709254    0.1000
     14 N14       -12.7878   -1.8604   56.6143 N.am    1  ZINC000337709254   -0.7200
     15 C15       -12.9570   -2.2756   55.3433 C.2     1  ZINC000337709254    0.5300
     16 O16       -13.2664   -3.4265   55.1175 O.2     1  ZINC000337709254   -0.5100
     17 C17       -12.7619   -1.3102   54.2028 C.3     1  ZINC000337709254    0.0200
     18 C18       -14.0573   -1.0430   53.5568 C.1     1  ZINC000337709254    0.2000
     19 N19       -15.0571   -0.8367   53.0583 N.1     1  ZINC000337709254   -0.3900
     20 C20       -12.1730   -0.0003   54.7353 C.3     1  ZINC000337709254   -0.1500
     21 C21       -11.9051    0.9445   53.5609 C.3     1  ZINC000337709254    0.0600
     22 O22       -11.0231    0.3101   52.6326 O.3     1  ZINC000337709254   -0.3700
     23 C23       -11.5410   -0.8951   52.0658 C.3     1  ZINC000337709254    0.0600
     24 C24       -11.7943   -1.9138   53.1802 C.3     1  ZINC000337709254   -0.1300
     25 H25        -9.1990    0.8063   61.9755 H       1  ZINC000337709254    0.1300
     26 H26        -9.7221   -0.7181   62.7311 H       1  ZINC000337709254    0.1300
     27 H27        -8.0119   -0.4800   62.2986 H       1  ZINC000337709254    0.1300
     28 H28       -11.4547   -0.0916   60.6988 H       1  ZINC000337709254    0.4200
     29 H29       -12.0800   -0.1611   58.3430 H       1  ZINC000337709254    0.0600
     30 H30       -10.7790   -1.3513   58.0997 H       1  ZINC000337709254    0.0900
     31 H31       -13.7722   -1.4812   60.7336 H       1  ZINC000337709254    0.0800
     32 H32       -14.1230   -0.6364   59.1896 H       1  ZINC000337709254    0.0700
     33 H33       -14.8297   -3.5130   59.9904 H       1  ZINC000337709254    0.0700
     34 H34       -15.8980   -2.2666   59.2729 H       1  ZINC000337709254    0.0700
     35 H35       -14.6227   -4.2140   57.7704 H       1  ZINC000337709254    0.0800
     36 H36       -15.0577   -2.6071   57.1228 H       1  ZINC000337709254    0.0700
     37 H37       -12.5392   -0.9403   56.7948 H       1  ZINC000337709254    0.4000
     38 H38       -12.8802    0.4643   55.4225 H       1  ZINC000337709254    0.0900
     39 H39       -11.2386   -0.2066   55.2572 H       1  ZINC000337709254    0.1100
     40 H40       -12.8456    1.1826   53.0640 H       1  ZINC000337709254    0.0500
     41 H41       -11.4462    1.8619   53.9296 H       1  ZINC000337709254    0.1100
     42 H42       -12.4768   -0.6811   51.5494 H       1  ZINC000337709254    0.0500
     43 H43       -10.8198   -1.3030   51.3575 H       1  ZINC000337709254    0.1100
     44 H44       -10.8522   -2.1588   53.6707 H       1  ZINC000337709254    0.1100
     45 H45       -12.2306   -2.8176   52.7552 H       1  ZINC000337709254    0.0900
@<TRIPOS>BOND
     1     1     2    1
     2     1    25    1
     3     1    26    1
     4     1    27    1
     5     2     3    2
     6     2     4    2
     7     2     5   am
     8     5     6    1
     9     5    28    1
    10     6     7    1
    11     6    29    1
    12     6    30    1
    13     7     8    1
    14     7    12    1
    15     7     9    1
    16     9    10    1
    17     9    31    1
    18     9    32    1
    19    10    11    1
    20    10    33    1
    21    10    34    1
    22    11    12    1
    23    11    35    1
    24    11    36    1
    25    12    13    1
    26    12    14    1
    27    14    15   am
    28    14    37    1
    29    15    16    2
    30    15    17    1
    31    17    24    1
    32    17    18    1
    33    17    20    1
    34    18    19    3
    35    20    21    1
    36    20    38    1
    37    20    39    1
    38    21    22    1
    39    21    40    1
    40    21    41    1
    41    22    23    1
    42    23    24    1
    43    23    42    1
    44    23    43    1
    45    24    44    1
    46    24    45    1
@<TRIPOS>SUBSTRUCTURE
     1 ZINC000337709254        1 TEMP              0 ****  ****    0 ROOT


##########                                Name:    ZINC000581017854
##########                DOCK_Rotatable_Bonds:                   6
##########                         Heavy_Atoms:                  24
##########                    Molecular_Weight:             330.334
##########                DOCK_Rotatable_Bonds:                   6
##########                       Formal_Charge:           0.0099998
##########                     HBond_Acceptors:                   6
##########                        HBond_Donors:                   2
##########                         Heavy_Atoms:                  24
##########                          Grid_Score:          -25.745806
##########                     Grid_vdw_energy:          -26.035725
##########                      Grid_es_energy:            0.289918
##########           Internal_energy_repulsive:            9.849789

@<TRIPOS>MOLECULE
ZINC000581017854
 40 42 1 0 0
SMALL
USER_CHARGES


@<TRIPOS>ATOM
      1 C1          3.7416    0.4754   51.0403 C.3     1  ZINC000581017854   -0.1600
      2 C2          2.4282    0.6060   50.2663 C.3     1  ZINC000581017854    0.1500
      3 H3          1.9392   -0.3668   50.2138 H       1  ZINC000581017854    0.1100
      4 C4          1.5112    1.5998   50.9819 C.3     1  ZINC000581017854    0.0500
      5 O5          0.2495    1.6508   50.3126 O.3     1  ZINC000581017854   -0.3100
      6 C6         -0.7201    2.4145   50.8814 C.ar    1  ZINC000581017854    0.1600
      7 C7         -1.9706    2.5050   50.2875 C.ar    1  ZINC000581017854   -0.2200
      8 C8         -2.9558    3.2817   50.8667 C.ar    1  ZINC000581017854   -0.0500
      9 C9         -2.6969    3.9695   52.0371 C.ar    1  ZINC000581017854   -0.1900
     10 C10        -1.4494    3.8820   52.6326 C.ar    1  ZINC000581017854    0.1400
     11 F11        -1.1984    4.5551   53.7768 F       1  ZINC000581017854   -0.1300
     12 C12        -0.4625    3.1000   52.0594 C.ar    1  ZINC000581017854   -0.1900
     13 N13         2.7061    1.0867   48.9106 N.am    1  ZINC000581017854   -0.7300
     14 C14         2.1023    0.5083   47.8536 C.2     1  ZINC000581017854    0.5900
     15 O15         1.3274   -0.4139   48.0251 O.2     1  ZINC000581017854   -0.5400
     16 C16         2.3796    0.9915   46.4942 C.2     1  ZINC000581017854   -0.2200
     17 C17         3.4450    1.7439   46.0971 C.2     1  ZINC000581017854    0.1100
     18 N18         3.3594    1.9944   44.7680 N.pl3   1  ZINC000581017854   -0.5700
     19 C19         2.2260    1.4110   44.2400 C.ar    1  ZINC000581017854    0.1100
     20 C20         1.6862    1.3687   42.9591 C.ar    1  ZINC000581017854   -0.1600
     21 C21         0.5070    0.6888   42.7312 C.ar    1  ZINC000581017854    0.1200
     22 F22        -0.0135    0.6499   41.4852 F       1  ZINC000581017854   -0.1400
     23 C23        -0.1491    0.0436   43.7720 C.ar    1  ZINC000581017854   -0.1700
     24 C24         0.3716    0.0754   45.0471 C.ar    1  ZINC000581017854   -0.0300
     25 C25         1.5637    0.7529   45.2889 C.ar    1  ZINC000581017854   -0.0700
     26 H26         3.5348    0.1178   52.0490 H       1  ZINC000581017854    0.0700
     27 H27         4.3948   -0.2326   50.5305 H       1  ZINC000581017854    0.0700
     28 H28         4.2306    1.4481   51.0928 H       1  ZINC000581017854    0.0700
     29 H29         1.3627    1.2796   52.0131 H       1  ZINC000581017854    0.0700
     30 H30         1.9685    2.5892   50.9708 H       1  ZINC000581017854    0.0800
     31 H31        -2.1740    1.9685   49.3725 H       1  ZINC000581017854    0.1400
     32 H32        -3.9291    3.3518   50.4038 H       1  ZINC000581017854    0.1400
     33 H33        -3.4683    4.5764   52.4879 H       1  ZINC000581017854    0.1400
     34 H34         0.5103    3.0311   52.5234 H       1  ZINC000581017854    0.1400
     35 H35         3.3247    1.8211   48.7737 H       1  ZINC000581017854    0.4000
     36 H36         4.2379    2.0886   46.7443 H       1  ZINC000581017854    0.1800
     37 H37         4.0038    2.5113   44.2595 H       1  ZINC000581017854    0.4200
     38 H38         2.1889    1.8675   42.1437 H       1  ZINC000581017854    0.1400
     39 H39        -1.0714   -0.4847   43.5807 H       1  ZINC000581017854    0.1400
     40 H40        -0.1404   -0.4266   45.8547 H       1  ZINC000581017854    0.1500
@<TRIPOS>BOND
     1     1     2    1
     2     1    26    1
     3     1    27    1
     4     1    28    1
     5     2     3    1
     6     2     4    1
     7     2    13    1
     8     4     5    1
     9     4    29    1
    10     4    30    1
    11     5     6    1
    12     6    12   ar
    13     6     7   ar
    14     7     8   ar
    15     7    31    1
    16     8     9   ar
    17     8    32    1
    18     9    10   ar
    19     9    33    1
    20    10    11    1
    21    10    12   ar
    22    12    34    1
    23    13    14   am
    24    13    35    1
    25    14    15    2
    26    14    16    1
    27    16    25    1
    28    16    17    2
    29    17    18    1
    30    17    36    1
    31    18    19    1
    32    18    37    1
    33    19    25   ar
    34    19    20   ar
    35    20    21   ar
    36    20    38    1
    37    21    22    1
    38    21    23   ar
    39    23    24   ar
    40    23    39    1
    41    24    25   ar
    42    24    40    1
@<TRIPOS>SUBSTRUCTURE
     1 ZINC000581017854        1 TEMP              0 ****  ****    0 ROOT


##########                                Name:    ZINC000516003207
##########                DOCK_Rotatable_Bonds:                   5
##########                         Heavy_Atoms:                  24
##########                    Molecular_Weight:             342.462
##########                DOCK_Rotatable_Bonds:                   5
##########                       Formal_Charge:          -0.0200001
##########                     HBond_Acceptors:                   5
##########                        HBond_Donors:                   1
##########                         Heavy_Atoms:                  24
##########                          Grid_Score:          -25.734884
##########                     Grid_vdw_energy:          -25.470964
##########                      Grid_es_energy:           -0.263920
##########           Internal_energy_repulsive:           70.041122

@<TRIPOS>MOLECULE
ZINC000516003207
 46 49 1 0 0
SMALL
USER_CHARGES


@<TRIPOS>ATOM
      1 C1         -3.7651    2.6465   49.4415 C.3     1  ZINC000516003207    0.0300
      2 O2         -4.6544    3.1573   50.4366 O.3     1  ZINC000516003207   -0.3600
      3 C3         -5.9562    2.5684   50.4102 C.3     1  ZINC000516003207    0.0900
      4 H4         -6.3563    2.4696   49.4011 H       1  ZINC000516003207    0.0800
      5 C5         -6.0696    1.2822   51.2486 C.3     1  ZINC000516003207   -0.1700
      6 C6         -6.4602    2.1787   52.4376 C.3     1  ZINC000516003207    0.1500
      7 H7         -5.6091    2.5184   53.0276 H       1  ZINC000516003207    0.1200
      8 N8         -7.5399    1.6271   53.2602 N.am    1  ZINC000516003207   -0.7200
      9 C9         -8.6074    1.0511   52.6728 C.2     1  ZINC000516003207    0.5600
     10 O10        -8.6738    0.9880   51.4607 O.2     1  ZINC000516003207   -0.5300
     11 C11        -9.6980    0.4960   53.5028 C.ar    1  ZINC000516003207   -0.1400
     12 C12       -10.7899   -0.1286   52.8972 C.ar    1  ZINC000516003207   -0.0800
     13 C13       -11.8086   -0.6467   53.6719 C.ar    1  ZINC000516003207   -0.1200
     14 C14       -11.7541   -0.5512   55.0485 C.ar    1  ZINC000516003207   -0.0800
     15 C15       -10.6684    0.0700   55.6657 C.ar    1  ZINC000516003207   -0.0300
     16 C16       -10.6125    0.1712   57.1447 C.2     1  ZINC000516003207    0.1100
     17 C17        -9.5637    0.7026   57.8046 C.2     1  ZINC000516003207   -0.2600
     18 S18        -9.9139    0.6241   59.5294 S.3     1  ZINC000516003207    0.1400
     19 C19       -11.4230   -0.1088   59.2029 C.2     1  ZINC000516003207    0.0600
     20 C20       -12.4194   -0.5284   60.2528 C.3     1  ZINC000516003207   -0.0800
     21 N21       -11.5916   -0.2476   57.9335 N.2     1  ZINC000516003207   -0.4700
     22 C22        -9.6356    0.5897   54.8922 C.ar    1  ZINC000516003207   -0.0300
     23 C23        -6.9358    3.2003   51.3996 C.3     1  ZINC000516003207   -0.1100
     24 C24        -6.9061    4.7003   51.6952 C.3     1  ZINC000516003207   -0.1200
     25 C25        -8.1084    4.8240   50.7417 C.3     1  ZINC000516003207   -0.1400
     26 C26        -8.4191    3.3501   51.0595 C.3     1  ZINC000516003207   -0.1200
     27 H27        -4.1821    2.8324   48.4517 H       1  ZINC000516003207    0.0400
     28 H28        -2.7990    3.1437   49.5279 H       1  ZINC000516003207    0.0900
     29 H29        -3.6359    1.5738   49.5857 H       1  ZINC000516003207    0.0400
     30 H30        -6.8698    0.6179   50.9221 H       1  ZINC000516003207    0.0900
     31 H31        -5.1196    0.7658   51.3855 H       1  ZINC000516003207    0.0800
     32 H32        -7.4863    1.6763   54.2274 H       1  ZINC000516003207    0.4000
     33 H33       -10.8381   -0.2063   51.8211 H       1  ZINC000516003207    0.1300
     34 H34       -12.6519   -1.1284   53.1992 H       1  ZINC000516003207    0.1400
     35 H35       -12.5544   -0.9581   55.6488 H       1  ZINC000516003207    0.1300
     36 H36        -8.6677    1.1047   57.3554 H       1  ZINC000516003207    0.1800
     37 H37       -12.0264   -0.2920   61.2416 H       1  ZINC000516003207    0.0800
     38 H38       -13.3572    0.0050   60.0975 H       1  ZINC000516003207    0.0900
     39 H39       -12.5952   -1.6016   60.1787 H       1  ZINC000516003207    0.0900
     40 H40        -8.7931    1.0716   55.3658 H       1  ZINC000516003207    0.1500
     41 H41        -7.1417    4.9469   52.7305 H       1  ZINC000516003207    0.0800
     42 H42        -6.0074    5.1998   51.3333 H       1  ZINC000516003207    0.0800
     43 H43        -8.8736    5.5163   51.0924 H       1  ZINC000516003207    0.0700
     44 H44        -7.8253    4.9957   49.7031 H       1  ZINC000516003207    0.0800
     45 H45        -8.7290    2.7708   50.1897 H       1  ZINC000516003207    0.0700
     46 H46        -9.0799    3.2171   51.9161 H       1  ZINC000516003207    0.0900
@<TRIPOS>BOND
     1     1     2    1
     2     1    27    1
     3     1    28    1
     4     1    29    1
     5     2     3    1
     6     3     4    1
     7     3    23    1
     8     3     5    1
     9     5     6    1
    10     5    30    1
    11     5    31    1
    12     6     7    1
    13     6     8    1
    14     6    23    1
    15     8     9   am
    16     8    32    1
    17     9    10    2
    18     9    11    1
    19    11    22   ar
    20    11    12   ar
    21    12    13   ar
    22    12    33    1
    23    13    14   ar
    24    13    34    1
    25    14    15   ar
    26    14    35    1
    27    15    16    1
    28    15    22   ar
    29    16    21    1
    30    16    17    2
    31    17    18    1
    32    17    36    1
    33    18    19    1
    34    19    20    1
    35    19    21    2
    36    20    37    1
    37    20    38    1
    38    20    39    1
    39    22    40    1
    40    23    26    1
    41    23    24    1
    42    24    25    1
    43    24    41    1
    44    24    42    1
    45    25    26    1
    46    25    43    1
    47    25    44    1
    48    26    45    1
    49    26    46    1
@<TRIPOS>SUBSTRUCTURE
     1 ZINC000516003207        1 TEMP              0 ****  ****    0 ROOT


##########                                Name:    ZINC000375477402
##########                DOCK_Rotatable_Bonds:                   5
##########                         Heavy_Atoms:                  26
##########                    Molecular_Weight:             378.342
##########                DOCK_Rotatable_Bonds:                   5
##########                       Formal_Charge:         -1.2666e-07
##########                     HBond_Acceptors:                   9
##########                        HBond_Donors:                   1
##########                         Heavy_Atoms:                  26
##########                          Grid_Score:          -25.731754
##########                     Grid_vdw_energy:          -25.265657
##########                      Grid_es_energy:           -0.466097
##########           Internal_energy_repulsive:            7.014316

@<TRIPOS>MOLECULE
ZINC000375477402
 45 47 1 0 0
SMALL
USER_CHARGES


@<TRIPOS>ATOM
      1 O1         -8.8144   -0.8028   52.1182 O.2     1  ZINC000375477402   -0.5600
      2 C2         -9.0273    0.0631   52.9449 C.2     1  ZINC000375477402    0.7200
      3 N3        -10.0234   -0.0900   53.8398 N.am    1  ZINC000375477402   -0.7300
      4 C4        -10.8535   -1.2968   53.8125 C.3     1  ZINC000375477402    0.1800
      5 H5        -10.2480   -2.1473   53.4992 H       1  ZINC000375477402    0.1500
      6 C6        -11.4089   -1.5557   55.1893 C.ar    1  ZINC000375477402   -0.1300
      7 C7        -12.1295   -0.5719   55.8400 C.ar    1  ZINC000375477402   -0.0800
      8 C8        -12.6397   -0.8077   57.1031 C.ar    1  ZINC000375477402   -0.0900
      9 C9        -12.4302   -2.0278   57.7179 C.ar    1  ZINC000375477402   -0.1100
     10 C10       -11.7091   -3.0150   57.0690 C.ar    1  ZINC000375477402    0.0800
     11 F11       -11.5039   -4.2078   57.6692 F       1  ZINC000375477402   -0.1200
     12 C12       -11.2023   -2.7805   55.7999 C.ar    1  ZINC000375477402    0.1000
     13 F13       -10.4981   -3.7425   55.1645 F       1  ZINC000375477402   -0.1100
     14 C14       -12.0064   -1.1006   52.8261 C.3     1  ZINC000375477402    0.4400
     15 F15       -13.1326   -1.7949   53.2809 F       1  ZINC000375477402   -0.1600
     16 F16       -12.3076    0.2619   52.7258 F       1  ZINC000375477402   -0.1700
     17 F17       -11.6333   -1.5894   51.5694 F       1  ZINC000375477402   -0.1800
     18 N18        -8.2636    1.1733   52.9699 N.am    1  ZINC000375477402   -0.6300
     19 C19        -8.4076    2.2949   53.9168 C.3     1  ZINC000375477402    0.1000
     20 C20        -7.0100    2.9644   53.9574 C.3     1  ZINC000375477402   -0.1200
     21 C21        -6.5548    2.8181   52.4883 C.3     1  ZINC000375477402   -0.1100
     22 C22        -7.1432    1.4650   52.0609 C.3     1  ZINC000375477402    0.1400
     23 C23        -7.1261    3.9514   51.6452 C.3     1  ZINC000375477402   -0.1100
     24 C24        -6.6078    3.8196   50.2083 C.3     1  ZINC000375477402   -0.1600
     25 C25        -5.0772    3.7944   50.2293 C.3     1  ZINC000375477402    0.0600
     26 O26        -4.6290    2.7051   51.0386 O.3     1  ZINC000375477402   -0.3800
     27 C27        -5.0345    2.7915   52.4076 C.3     1  ZINC000375477402    0.0800
     28 H28       -10.1906    0.5989   54.5019 H       1  ZINC000375477402    0.4000
     29 H29       -12.2939    0.3821   55.3613 H       1  ZINC000375477402    0.1400
     30 H30       -13.2022   -0.0378   57.6102 H       1  ZINC000375477402    0.1500
     31 H31       -12.8290   -2.2107   58.7048 H       1  ZINC000375477402    0.1500
     32 H32        -9.1560    3.0011   53.5570 H       1  ZINC000375477402    0.0700
     33 H33        -8.6792    1.9241   54.9052 H       1  ZINC000375477402    0.0700
     34 H34        -7.0876    4.0143   54.2399 H       1  ZINC000375477402    0.0900
     35 H35        -6.3394    2.4290   54.6295 H       1  ZINC000375477402    0.0800
     36 H36        -6.3825    0.6881   52.1389 H       1  ZINC000375477402    0.0800
     37 H37        -7.5105    1.5268   51.0365 H       1  ZINC000375477402    0.0700
     38 H38        -8.2146    3.8935   51.6466 H       1  ZINC000375477402    0.0700
     39 H39        -6.8107    4.9087   52.0599 H       1  ZINC000375477402    0.0700
     40 H40        -6.9817    2.8947   49.7692 H       1  ZINC000375477402    0.0700
     41 H41        -6.9504    4.6695   49.6179 H       1  ZINC000375477402    0.0800
     42 H42        -4.7020    3.6706   49.2134 H       1  ZINC000375477402    0.1000
     43 H43        -4.7040    4.7314   50.6425 H       1  ZINC000375477402    0.0500
     44 H44        -4.6316    3.7030   52.8488 H       1  ZINC000375477402    0.0600
     45 H45        -4.6572    1.9267   52.9533 H       1  ZINC000375477402    0.1000
@<TRIPOS>BOND
     1     1     2    2
     2     2     3   am
     3     2    18   am
     4     3     4    1
     5     3    28    1
     6     4     5    1
     7     4     6    1
     8     4    14    1
     9     6    12   ar
    10     6     7   ar
    11     7     8   ar
    12     7    29    1
    13     8     9   ar
    14     8    30    1
    15     9    10   ar
    16     9    31    1
    17    10    11    1
    18    10    12   ar
    19    12    13    1
    20    14    15    1
    21    14    16    1
    22    14    17    1
    23    18    22    1
    24    18    19    1
    25    19    20    1
    26    19    32    1
    27    19    33    1
    28    20    21    1
    29    20    34    1
    30    20    35    1
    31    21    27    1
    32    21    22    1
    33    21    23    1
    34    22    36    1
    35    22    37    1
    36    23    24    1
    37    23    38    1
    38    23    39    1
    39    24    25    1
    40    24    40    1
    41    24    41    1
    42    25    26    1
    43    25    42    1
    44    25    43    1
    45    26    27    1
    46    27    44    1
    47    27    45    1
@<TRIPOS>SUBSTRUCTURE
     1 ZINC000375477402        1 TEMP              0 ****  ****    0 ROOT


##########                                Name:    ZINC001016082614
##########                DOCK_Rotatable_Bonds:                   6
##########                         Heavy_Atoms:                  25
##########                    Molecular_Weight:             348.402
##########                DOCK_Rotatable_Bonds:                   6
##########                       Formal_Charge:         -0.00999998
##########                     HBond_Acceptors:                   8
##########                        HBond_Donors:                   1
##########                         Heavy_Atoms:                  25
##########                          Grid_Score:          -25.727966
##########                     Grid_vdw_energy:          -24.361605
##########                      Grid_es_energy:           -1.366361
##########           Internal_energy_repulsive:           42.376732

@<TRIPOS>MOLECULE
ZINC001016082614
 49 51 1 0 0
SMALL
USER_CHARGES


@<TRIPOS>ATOM
      1 C1         -2.3452    3.7673   53.2783 C.3     1  ZINC001016082614   -0.1700
      2 C2         -2.8622    2.4917   52.6102 C.3     1  ZINC001016082614    0.1000
      3 N3         -3.3407    2.8062   51.2617 N.am    1  ZINC001016082614   -0.6100
      4 C4         -2.4576    3.0524   50.2737 C.2     1  ZINC001016082614    0.6100
      5 O5         -2.8550    3.3135   49.1537 O.2     1  ZINC001016082614   -0.5100
      6 C6         -1.0171    3.0054   50.5487 C.2     1  ZINC001016082614   -0.1100
      7 C7         -0.0291    3.5915   49.8145 C.2     1  ZINC001016082614    0.0600
      8 N8          1.1345    3.3056   50.4077 N.2     1  ZINC001016082614   -0.4900
      9 C9          0.9042    2.5751   51.4656 C.2     1  ZINC001016082614    0.2000
     10 O10        -0.4124    2.3768   51.5835 O.3     1  ZINC001016082614   -0.1900
     11 C11        -4.7790    2.8531   50.9871 C.3     1  ZINC001016082614    0.1600
     12 H12        -4.9229    2.8863   49.9072 H       1  ZINC001016082614    0.0800
     13 C13        -5.4162    1.5741   51.5218 C.3     1  ZINC001016082614   -0.1300
     14 C14        -6.6711    1.2757   50.7392 C.3     1  ZINC001016082614   -0.1300
     15 C15        -7.8904    1.9102   51.4325 C.3     1  ZINC001016082614    0.1000
     16 N16        -7.5939    3.2585   51.9550 N.am    1  ZINC001016082614   -0.6000
     17 C17        -8.0581    3.5952   53.1747 C.2     1  ZINC001016082614    0.5000
     18 O18        -7.8289    4.6965   53.6279 O.2     1  ZINC001016082614   -0.5200
     19 C19        -8.8618    2.6032   53.9753 C.3     1  ZINC001016082614    0.1100
     20 H20        -9.4367    1.9595   53.3095 H       1  ZINC001016082614    0.1100
     21 C21        -9.8047    3.3421   54.9506 C.3     1  ZINC001016082614   -0.1200
     22 C22        -8.9511    3.3897   56.2390 C.3     1  ZINC001016082614   -0.1600
     23 C23        -8.0014    2.2206   56.0984 C.2     1  ZINC001016082614    0.5300
     24 O24        -7.3577    1.7356   57.0047 O.2     1  ZINC001016082614   -0.5300
     25 N25        -7.9748    1.7958   54.8212 N.am    1  ZINC001016082614   -0.7100
     26 C26        -6.8258    4.2327   51.2126 C.3     1  ZINC001016082614    0.1300
     27 C27        -5.3256    4.0884   51.5694 C.3     1  ZINC001016082614   -0.1600
     28 H28        -1.9892    3.5333   54.2816 H       1  ZINC001016082614    0.0700
     29 H29        -1.5261    4.1797   52.6891 H       1  ZINC001016082614    0.0500
     30 H30        -3.1519    4.4977   53.3402 H       1  ZINC001016082614    0.0600
     31 H31        -2.0554    1.7613   52.5483 H       1  ZINC001016082614    0.0900
     32 H32        -3.6813    2.0793   53.1994 H       1  ZINC001016082614    0.0900
     33 H33        -0.1619    4.1788   48.9179 H       1  ZINC001016082614    0.2000
     34 H34         1.6572    2.1954   52.1402 H       1  ZINC001016082614    0.2600
     35 H35        -4.7153    0.7463   51.4146 H       1  ZINC001016082614    0.0700
     36 H36        -5.6667    1.7052   52.5745 H       1  ZINC001016082614    0.0800
     37 H37        -6.5750    1.6832   49.7328 H       1  ZINC001016082614    0.0700
     38 H38        -6.8110    0.1964   50.6783 H       1  ZINC001016082614    0.0800
     39 H39        -8.7085    1.9805   50.7156 H       1  ZINC001016082614    0.0700
     40 H40        -8.2002    1.2706   52.2590 H       1  ZINC001016082614    0.0800
     41 H41       -10.0266    4.3473   54.5922 H       1  ZINC001016082614    0.1000
     42 H42       -10.7219    2.7754   55.1110 H       1  ZINC001016082614    0.1000
     43 H43        -8.3970    4.3267   56.2951 H       1  ZINC001016082614    0.1100
     44 H44        -9.5818    3.2650   57.1193 H       1  ZINC001016082614    0.1100
     45 H45        -7.4388    1.0529   54.5026 H       1  ZINC001016082614    0.4200
     46 H46        -6.9643    4.0664   50.1443 H       1  ZINC001016082614    0.0800
     47 H47        -7.1657    5.2357   51.4703 H       1  ZINC001016082614    0.0900
     48 H48        -5.2136    4.0605   52.6532 H       1  ZINC001016082614    0.0900
     49 H49        -4.7769    4.9433   51.1744 H       1  ZINC001016082614    0.0700
@<TRIPOS>BOND
     1     1     2    1
     2     1    28    1
     3     1    29    1
     4     1    30    1
     5     2     3    1
     6     2    31    1
     7     2    32    1
     8     3     4   am
     9     3    11    1
    10     4     5    2
    11     4     6    1
    12     6    10    1
    13     6     7    2
    14     7     8    1
    15     7    33    1
    16     8     9    2
    17     9    10    1
    18     9    34    1
    19    11    12    1
    20    11    27    1
    21    11    13    1
    22    13    14    1
    23    13    35    1
    24    13    36    1
    25    14    15    1
    26    14    37    1
    27    14    38    1
    28    15    16    1
    29    15    39    1
    30    15    40    1
    31    16    17   am
    32    16    26    1
    33    17    18    2
    34    17    19    1
    35    19    20    1
    36    19    25    1
    37    19    21    1
    38    21    22    1
    39    21    41    1
    40    21    42    1
    41    22    23    1
    42    22    43    1
    43    22    44    1
    44    23    24    2
    45    23    25   am
    46    25    45    1
    47    26    27    1
    48    26    46    1
    49    26    47    1
    50    27    48    1
    51    27    49    1
@<TRIPOS>SUBSTRUCTURE
     1 ZINC001016082614        1 TEMP              0 ****  ****    0 ROOT


##########                                Name:    ZINC000811540126
##########                DOCK_Rotatable_Bonds:                   7
##########                         Heavy_Atoms:                  21
##########                    Molecular_Weight:             397.212
##########                DOCK_Rotatable_Bonds:                   7
##########                       Formal_Charge:           0.0100001
##########                     HBond_Acceptors:                   4
##########                        HBond_Donors:                   3
##########                         Heavy_Atoms:                  21
##########                          Grid_Score:          -25.724463
##########                     Grid_vdw_energy:          -24.923571
##########                      Grid_es_energy:           -0.800891
##########           Internal_energy_repulsive:           13.033777

@<TRIPOS>MOLECULE
ZINC000811540126
 37 38 1 0 0
SMALL
USER_CHARGES


@<TRIPOS>ATOM
      1 C1         -7.4097    0.6623   51.5315 C.3     1  ZINC000811540126   -0.1600
      2 C2         -7.9135    2.0577   51.9059 C.3     1  ZINC000811540126    0.1200
      3 H3         -8.9509    2.1664   51.5897 H       1  ZINC000811540126    0.1000
      4 N4         -7.8241    2.2361   53.3573 N.am    1  ZINC000811540126   -0.7200
      5 C5         -8.9268    2.1064   54.1213 C.2     1  ZINC000811540126    0.5700
      6 O6         -9.9960    1.8429   53.6058 O.2     1  ZINC000811540126   -0.5100
      7 C7         -8.8365    2.2842   55.5830 C.ar    1  ZINC000811540126   -0.1600
      8 C8         -9.1804    1.2368   56.4406 C.ar    1  ZINC000811540126   -0.0400
      9 C9         -9.0938    1.4095   57.8058 C.ar    1  ZINC000811540126   -0.1200
     10 I10        -9.6102   -0.1624   59.0908 I       1  ZINC000811540126   -0.0300
     11 C11        -8.6663    2.6181   58.3315 C.ar    1  ZINC000811540126   -0.0400
     12 C12        -8.3237    3.6617   57.4946 C.ar    1  ZINC000811540126   -0.1500
     13 C13        -8.3994    3.5035   56.1191 C.ar    1  ZINC000811540126    0.1900
     14 O14        -8.0626    4.5278   55.2959 O.3     1  ZINC000811540126   -0.4700
     15 C15        -7.0543    3.1141   51.2084 C.3     1  ZINC000811540126    0.1400
     16 H16        -7.3175    4.1028   51.5843 H       1  ZINC000811540126    0.1300
     17 O17        -7.2867    3.0629   49.7993 O.3     1  ZINC000811540126   -0.5400
     18 C18        -5.5985    2.8419   51.4875 C.ar    1  ZINC000811540126   -0.1200
     19 C19        -4.8326    2.1608   50.5602 C.ar    1  ZINC000811540126   -0.1100
     20 C20        -3.4972    1.9111   50.8162 C.ar    1  ZINC000811540126   -0.1100
     21 C21        -2.9279    2.3429   51.9996 C.ar    1  ZINC000811540126   -0.1200
     22 C22        -3.6937    3.0247   52.9266 C.ar    1  ZINC000811540126   -0.1100
     23 C23        -5.0279    3.2783   52.6686 C.ar    1  ZINC000811540126   -0.1100
     24 H24        -8.0218   -0.0904   52.0284 H       1  ZINC000811540126    0.0600
     25 H25        -7.4762    0.5297   50.4517 H       1  ZINC000811540126    0.0700
     26 H26        -6.3723    0.5536   51.8477 H       1  ZINC000811540126    0.0700
     27 H27        -6.9713    2.4474   53.7683 H       1  ZINC000811540126    0.3900
     28 H28        -9.5142    0.2932   56.0350 H       1  ZINC000811540126    0.1300
     29 H29        -8.6010    2.7448   59.4020 H       1  ZINC000811540126    0.1400
     30 H30        -7.9917    4.6009   57.9119 H       1  ZINC000811540126    0.1500
     31 H31        -8.7279    4.7267   54.6229 H       1  ZINC000811540126    0.4000
     32 H32        -6.9320    2.2719   49.3708 H       1  ZINC000811540126    0.3700
     33 H33        -5.2774    1.8234   49.6356 H       1  ZINC000811540126    0.1100
     34 H34        -2.8989    1.3783   50.0919 H       1  ZINC000811540126    0.1200
     35 H35        -1.8849    2.1471   52.1999 H       1  ZINC000811540126    0.1200
     36 H36        -3.2489    3.3618   53.8513 H       1  ZINC000811540126    0.1300
     37 H37        -5.6262    3.8110   53.3929 H       1  ZINC000811540126    0.1200
@<TRIPOS>BOND
     1     1     2    1
     2     1    24    1
     3     1    25    1
     4     1    26    1
     5     2     3    1
     6     2     4    1
     7     2    15    1
     8     4     5   am
     9     4    27    1
    10     5     6    2
    11     5     7    1
    12     7    13   ar
    13     7     8   ar
    14     8     9   ar
    15     8    28    1
    16     9    10    1
    17     9    11   ar
    18    11    12   ar
    19    11    29    1
    20    12    13   ar
    21    12    30    1
    22    13    14    1
    23    14    31    1
    24    15    16    1
    25    15    17    1
    26    15    18    1
    27    17    32    1
    28    18    23   ar
    29    18    19   ar
    30    19    20   ar
    31    19    33    1
    32    20    21   ar
    33    20    34    1
    34    21    22   ar
    35    21    35    1
    36    22    23   ar
    37    22    36    1
    38    23    37    1
@<TRIPOS>SUBSTRUCTURE
     1 ZINC000811540126        1 TEMP              0 ****  ****    0 ROOT


##########                                Name:    ZINC000543429378
##########                DOCK_Rotatable_Bonds:                   6
##########                         Heavy_Atoms:                  29
##########                    Molecular_Weight:             406.408
##########                DOCK_Rotatable_Bonds:                   6
##########                       Formal_Charge:           0.0100003
##########                     HBond_Acceptors:                   9
##########                        HBond_Donors:                   1
##########                         Heavy_Atoms:                  29
##########                          Grid_Score:          -25.722603
##########                     Grid_vdw_energy:          -26.244558
##########                      Grid_es_energy:            0.521955
##########           Internal_energy_repulsive:           42.409683

@<TRIPOS>MOLECULE
ZINC000543429378
 50 53 1 0 0
SMALL
USER_CHARGES


@<TRIPOS>ATOM
      1 O1         -8.3796    0.3942   52.6804 O.2     1  ZINC000543429378   -0.5100
      2 C2         -8.8503    1.3948   52.1823 C.2     1  ZINC000543429378    0.5200
      3 N3        -10.1782    1.6173   52.2432 N.am    1  ZINC000543429378   -0.6600
      4 C4        -11.0144    0.6910   52.8761 C.ar    1  ZINC000543429378    0.1900
      5 C5        -10.7085    0.2367   54.1524 C.ar    1  ZINC000543429378   -0.1600
      6 C6        -11.5345   -0.6776   54.7776 C.ar    1  ZINC000543429378   -0.0600
      7 C7        -12.6661   -1.1424   54.1353 C.ar    1  ZINC000543429378   -0.2100
      8 C8        -12.9768   -0.6917   52.8597 C.ar    1  ZINC000543429378    0.1300
      9 O9        -14.0901   -1.1497   52.2292 O.3     1  ZINC000543429378   -0.3100
     10 C10       -14.4926   -0.4627   51.0426 C.3     1  ZINC000543429378    0.6000
     11 F11       -13.5526   -0.6886   50.0313 F       1  ZINC000543429378   -0.1600
     12 F12       -15.7431   -0.9363   50.6310 F       1  ZINC000543429378   -0.1300
     13 F13       -14.5763    0.9091   51.3035 F       1  ZINC000543429378   -0.1600
     14 C14       -12.1538    0.2296   52.2316 C.ar    1  ZINC000543429378   -0.1300
     15 C15        -7.9497    2.3924   51.5005 C.3     1  ZINC000543429378    0.0700
     16 H16        -8.5238    2.9846   50.7880 H       1  ZINC000543429378    0.1200
     17 C17        -6.7983    1.6514   50.7670 C.3     1  ZINC000543429378   -0.1200
     18 C18        -5.6086    2.5910   51.0169 C.3     1  ZINC000543429378   -0.1000
     19 H19        -5.6422    3.4521   50.3495 H       1  ZINC000543429378    0.0900
     20 C20        -4.2415    1.9292   50.9830 C.3     1  ZINC000543429378   -0.1100
     21 C21        -3.2078    2.9960   51.3777 C.3     1  ZINC000543429378   -0.1200
     22 C22        -3.5032    3.5776   52.7570 C.3     1  ZINC000543429378   -0.1100
     23 C23        -4.9370    4.1276   52.8379 C.3     1  ZINC000543429378   -0.0900
     24 C24        -5.8875    3.0068   52.4869 C.3     1  ZINC000543429378    0.0700
     25 H25        -5.6833    2.1485   53.1270 H       1  ZINC000543429378    0.0900
     26 N26        -7.3237    3.2837   52.5119 N.3     1  ZINC000543429378   -0.4300
     27 C27        -7.8539    3.0417   53.7673 C.ar    1  ZINC000543429378    0.5000
     28 N28        -8.9713    3.6561   54.1268 N.ar    1  ZINC000543429378   -0.5300
     29 C29        -9.5046    3.4467   55.3191 C.ar    1  ZINC000543429378    0.1800
     30 C30        -8.8799    2.5729   56.1951 C.ar    1  ZINC000543429378   -0.2500
     31 C31        -7.7126    1.9471   55.7868 C.ar    1  ZINC000543429378    0.1800
     32 N32        -7.2349    2.1969   54.5789 N.ar    1  ZINC000543429378   -0.5300
     33 H33       -10.5541    2.4195   51.8482 H       1  ZINC000543429378    0.4200
     34 H34        -9.8241    0.5978   54.6563 H       1  ZINC000543429378    0.1400
     35 H35       -11.2949   -1.0299   55.7700 H       1  ZINC000543429378    0.1400
     36 H36       -13.3095   -1.8575   54.6262 H       1  ZINC000543429378    0.1400
     37 H37       -12.3940    0.5814   51.2392 H       1  ZINC000543429378    0.1500
     38 H38        -6.6207    0.6714   51.2100 H       1  ZINC000543429378    0.0800
     39 H39        -7.0081    1.5634   49.7010 H       1  ZINC000543429378    0.0900
     40 H40        -4.2117    1.1031   51.6935 H       1  ZINC000543429378    0.0700
     41 H41        -4.0315    1.5631   49.9781 H       1  ZINC000543429378    0.0700
     42 H42        -2.2156    2.5446   51.3864 H       1  ZINC000543429378    0.0600
     43 H43        -3.2259    3.7992   50.6411 H       1  ZINC000543429378    0.0600
     44 H44        -3.3776    2.7971   53.5075 H       1  ZINC000543429378    0.0600
     45 H45        -2.7995    4.3844   52.9620 H       1  ZINC000543429378    0.0700
     46 H46        -5.1408    4.4839   53.8477 H       1  ZINC000543429378    0.0700
     47 H47        -5.0624    4.9419   52.1242 H       1  ZINC000543429378    0.0700
     48 H48       -10.4154    3.9508   55.6066 H       1  ZINC000543429378    0.1600
     49 H49        -9.2937    2.3841   57.1747 H       1  ZINC000543429378    0.1400
     50 H50        -7.2011    1.2609   56.4457 H       1  ZINC000543429378    0.1600
@<TRIPOS>BOND
     1     1     2    2
     2     2     3   am
     3     2    15    1
     4     3     4    1
     5     3    33    1
     6     4    14   ar
     7     4     5   ar
     8     5     6   ar
     9     5    34    1
    10     6     7   ar
    11     6    35    1
    12     7     8   ar
    13     7    36    1
    14     8     9    1
    15     8    14   ar
    16     9    10    1
    17    10    11    1
    18    10    12    1
    19    10    13    1
    20    14    37    1
    21    15    16    1
    22    15    26    1
    23    15    17    1
    24    17    18    1
    25    17    38    1
    26    17    39    1
    27    18    19    1
    28    18    24    1
    29    18    20    1
    30    20    21    1
    31    20    40    1
    32    20    41    1
    33    21    22    1
    34    21    42    1
    35    21    43    1
    36    22    23    1
    37    22    44    1
    38    22    45    1
    39    23    24    1
    40    23    46    1
    41    23    47    1
    42    24    25    1
    43    24    26    1
    44    26    27    1
    45    27    32   ar
    46    27    28   ar
    47    28    29   ar
    48    29    30   ar
    49    29    48    1
    50    30    31   ar
    51    30    49    1
    52    31    32   ar
    53    31    50    1
@<TRIPOS>SUBSTRUCTURE
     1 ZINC000543429378        1 TEMP              0 ****  ****    0 ROOT


##########                                Name:    ZINC001023148918
##########                DOCK_Rotatable_Bonds:                   6
##########                         Heavy_Atoms:                  25
##########                    Molecular_Weight:             348.402
##########                DOCK_Rotatable_Bonds:                   6
##########                       Formal_Charge:           0.0199999
##########                     HBond_Acceptors:                   8
##########                        HBond_Donors:                   2
##########                         Heavy_Atoms:                  25
##########                          Grid_Score:          -25.700087
##########                     Grid_vdw_energy:          -26.036161
##########                      Grid_es_energy:            0.336074
##########           Internal_energy_repulsive:           12.784034

@<TRIPOS>MOLECULE
ZINC001023148918
 49 52 1 0 0
SMALL
USER_CHARGES


@<TRIPOS>ATOM
      1 C1        -13.3364    1.3730   64.3091 C.3     1  ZINC001023148918   -0.0700
      2 C2        -12.1647    0.8000   63.5541 C.2     1  ZINC001023148918    0.0200
      3 N3        -10.9299    0.7347   63.9821 N.2     1  ZINC001023148918   -0.2700
      4 N4        -10.1676    0.1910   63.1029 N.pl3   1  ZINC001023148918   -0.2500
      5 C5         -8.7287   -0.0365   63.2576 C.3     1  ZINC001023148918    0.0800
      6 C6        -10.9034   -0.1428   62.0014 C.2     1  ZINC001023148918   -0.0400
      7 C7        -10.4118   -0.7856   60.7723 C.2     1  ZINC001023148918    0.6000
      8 O8         -9.2538   -1.1505   60.6982 O.2     1  ZINC001023148918   -0.5300
      9 N9        -11.2446   -0.9702   59.7288 N.am    1  ZINC001023148918   -0.7000
     10 C10       -10.7550   -1.6101   58.5053 C.3     1  ZINC001023148918    0.1500
     11 H11        -9.6659   -1.6530   58.4981 H       1  ZINC001023148918    0.1200
     12 C12       -11.2904   -0.8836   57.2462 C.3     1  ZINC001023148918    0.1000
     13 N13       -11.2670   -1.9045   56.1828 N.am    1  ZINC001023148918   -0.6200
     14 C14       -11.1980   -1.6587   54.8595 C.2     1  ZINC001023148918    0.5400
     15 O15       -11.1835   -2.5805   54.0714 O.2     1  ZINC001023148918   -0.5200
     16 C16       -11.1389   -0.2385   54.3590 C.3     1  ZINC001023148918   -0.1400
     17 H17       -10.4570    0.3557   54.9673 H       1  ZINC001023148918    0.1100
     18 C18       -12.5528    0.3963   54.3400 C.3     1  ZINC001023148918   -0.1400
     19 C19       -12.7661    0.7184   52.8305 C.3     1  ZINC001023148918    0.0600
     20 H20       -13.8049    0.8237   52.5173 H       1  ZINC001023148918    0.1300
     21 C21       -11.8523    1.9461   52.5380 C.3     1  ZINC001023148918   -0.1500
     22 C22       -10.4307    1.3286   52.5596 C.3     1  ZINC001023148918   -0.1500
     23 C23       -10.7181   -0.1988   52.8592 C.3     1  ZINC001023148918    0.0900
     24 H24        -9.9295   -0.8898   52.5613 H       1  ZINC001023148918    0.1400
     25 O25       -12.0195   -0.3722   52.1974 O.3     1  ZINC001023148918   -0.3600
     26 C26       -11.3304   -3.2349   56.8052 C.3     1  ZINC001023148918    0.0700
     27 C27       -11.3684   -3.0249   58.3340 C.3     1  ZINC001023148918    0.0900
     28 H28       -12.3946   -3.0466   58.7009 H       1  ZINC001023148918    0.0800
     29 O29       -10.5747   -4.0094   58.9995 O.3     1  ZINC001023148918   -0.5500
     30 C30       -12.2052    0.2388   62.2756 C.2     1  ZINC001023148918   -0.1800
     31 H31       -13.8054    0.5881   64.9022 H       1  ZINC001023148918    0.0800
     32 H32       -12.9896    2.1687   64.9685 H       1  ZINC001023148918    0.0700
     33 H33       -14.0615    1.7768   63.6024 H       1  ZINC001023148918    0.0800
     34 H34        -8.5637   -0.9864   63.7661 H       1  ZINC001023148918    0.0900
     35 H35        -8.2574   -0.0637   62.2752 H       1  ZINC001023148918    0.1100
     36 H36        -8.2944    0.7712   63.8467 H       1  ZINC001023148918    0.0900
     37 H37       -12.1679   -0.6792   59.7879 H       1  ZINC001023148918    0.4100
     38 H38       -12.3091   -0.5341   57.4142 H       1  ZINC001023148918    0.0800
     39 H39       -10.6403   -0.0486   56.9848 H       1  ZINC001023148918    0.0900
     40 H40       -13.3001   -0.3146   54.6925 H       1  ZINC001023148918    0.0800
     41 H41       -12.5746    1.3086   54.9363 H       1  ZINC001023148918    0.0900
     42 H42       -12.0750    2.3685   51.5582 H       1  ZINC001023148918    0.0800
     43 H43       -11.9576    2.7003   53.3179 H       1  ZINC001023148918    0.0800
     44 H44        -9.9450    1.4434   51.5906 H       1  ZINC001023148918    0.0800
     45 H45        -9.8278    1.7751   53.3503 H       1  ZINC001023148918    0.0800
     46 H46       -12.2320   -3.7540   56.4794 H       1  ZINC001023148918    0.0800
     47 H47       -10.4481   -3.8140   56.5330 H       1  ZINC001023148918    0.0900
     48 H48       -10.5250   -3.8922   59.9581 H       1  ZINC001023148918    0.3900
     49 H49       -13.0679    0.1313   61.6348 H       1  ZINC001023148918    0.1600
@<TRIPOS>BOND
     1     1     2    1
     2     1    31    1
     3     1    32    1
     4     1    33    1
     5     2    30    1
     6     2     3    2
     7     3     4    1
     8     4     5    1
     9     4     6    1
    10     5    34    1
    11     5    35    1
    12     5    36    1
    13     6     7    1
    14     6    30    2
    15     7     8    2
    16     7     9   am
    17     9    10    1
    18     9    37    1
    19    10    11    1
    20    10    27    1
    21    10    12    1
    22    12    13    1
    23    12    38    1
    24    12    39    1
    25    13    14   am
    26    13    26    1
    27    14    15    2
    28    14    16    1
    29    16    17    1
    30    16    23    1
    31    16    18    1
    32    18    19    1
    33    18    40    1
    34    18    41    1
    35    19    20    1
    36    19    25    1
    37    19    21    1
    38    21    22    1
    39    21    42    1
    40    21    43    1
    41    22    23    1
    42    22    44    1
    43    22    45    1
    44    23    24    1
    45    23    25    1
    46    26    27    1
    47    26    46    1
    48    26    47    1
    49    27    28    1
    50    27    29    1
    51    29    48    1
    52    30    49    1
@<TRIPOS>SUBSTRUCTURE
     1 ZINC001023148918        1 TEMP              0 ****  ****    0 ROOT


##########                                Name:    ZINC000845755710
##########                DOCK_Rotatable_Bonds:                   3
##########                         Heavy_Atoms:                  24
##########                    Molecular_Weight:             349.814
##########                DOCK_Rotatable_Bonds:                   3
##########                       Formal_Charge:         -0.00999974
##########                     HBond_Acceptors:                   6
##########                        HBond_Donors:                   0
##########                         Heavy_Atoms:                  24
##########                          Grid_Score:          -25.691740
##########                     Grid_vdw_energy:          -25.740585
##########                      Grid_es_energy:            0.048845
##########           Internal_energy_repulsive:           14.353110

@<TRIPOS>MOLECULE
ZINC000845755710
 44 47 1 0 0
SMALL
USER_CHARGES


@<TRIPOS>ATOM
      1 C1         -9.1929   -1.1509   60.9468 C.3     1  ZINC000845755710   -0.1700
      2 C2        -10.3370   -0.4208   60.2404 C.3     1  ZINC000845755710    0.2600
      3 C3         -9.7899    0.8082   59.5115 C.3     1  ZINC000845755710   -0.0900
      4 C4         -8.9332    0.3583   58.3259 C.3     1  ZINC000845755710   -0.1300
      5 C5         -8.3592    1.5904   57.6193 C.3     1  ZINC000845755710    0.1100
      6 N6         -9.4657    2.4870   57.2584 N.am    1  ZINC000845755710   -0.6000
      7 C7         -9.6174    2.9140   55.9891 C.2     1  ZINC000845755710    0.5900
      8 O8        -10.5379    3.6563   55.7031 O.2     1  ZINC000845755710   -0.5200
      9 C9         -8.6703    2.4828   54.9499 C.2     1  ZINC000845755710   -0.2200
     10 C10        -7.4389    3.0019   54.6943 C.2     1  ZINC000845755710    0.0600
     11 O11        -6.8731    2.3483   53.6730 O.3     1  ZINC000845755710   -0.1800
     12 C12        -7.6828    1.3768   53.2026 C.ar    1  ZINC000845755710    0.0500
     13 C13        -7.5541    0.4472   52.1784 C.ar    1  ZINC000845755710   -0.0900
     14 C14        -8.5754   -0.4434   51.9236 C.ar    1  ZINC000845755710   -0.0800
     15 C15        -9.7373   -0.4224   52.6816 C.ar    1  ZINC000845755710   -0.0400
     16 Cl16      -11.0116   -1.5521   52.3441 Cl      1  ZINC000845755710   -0.0600
     17 C17        -9.8825    0.4936   53.7032 C.ar    1  ZINC000845755710   -0.0500
     18 C18        -8.8558    1.3924   53.9716 C.ar    1  ZINC000845755710   -0.0900
     19 C19       -10.4041    2.9087   58.3072 C.3     1  ZINC000845755710    0.1000
     20 C20       -10.9552    1.6618   59.0062 C.3     1  ZINC000845755710   -0.1300
     21 O21       -10.9607   -1.3032   59.2924 O.3     1  ZINC000845755710   -0.3700
     22 C22       -12.0927   -1.8651   59.9987 C.3     1  ZINC000845755710    0.0100
     23 C23       -12.5557   -0.6625   60.8584 C.3     1  ZINC000845755710    0.0200
     24 O24       -11.3161   -0.0127   61.2049 O.3     1  ZINC000845755710   -0.3800
     25 H25        -9.5862   -2.0228   61.4696 H       1  ZINC000845755710    0.0600
     26 H26        -8.4563   -1.4710   60.2098 H       1  ZINC000845755710    0.0800
     27 H27        -8.7212   -0.4793   61.6641 H       1  ZINC000845755710    0.0800
     28 H28        -9.1801    1.3958   60.1978 H       1  ZINC000845755710    0.0900
     29 H29        -8.1169   -0.2689   58.6842 H       1  ZINC000845755710    0.0800
     30 H30        -9.5482   -0.2084   57.6269 H       1  ZINC000845755710    0.0800
     31 H31        -7.6725    2.1086   58.2886 H       1  ZINC000845755710    0.0700
     32 H32        -7.8303    1.2812   56.7177 H       1  ZINC000845755710    0.1000
     33 H33        -6.9858    3.8197   55.2349 H       1  ZINC000845755710    0.2200
     34 H34        -6.6544    0.4222   51.5815 H       1  ZINC000845755710    0.1500
     35 H35        -8.4701   -1.1640   51.1261 H       1  ZINC000845755710    0.1500
     36 H36       -10.7869    0.5102   54.2934 H       1  ZINC000845755710    0.1400
     37 H37        -9.8843    3.5344   59.0327 H       1  ZINC000845755710    0.0800
     38 H38       -11.2247    3.4694   57.8596 H       1  ZINC000845755710    0.0900
     39 H39       -11.5513    1.0829   58.3007 H       1  ZINC000845755710    0.0700
     40 H40       -11.5782    1.9624   59.8486 H       1  ZINC000845755710    0.0800
     41 H41       -12.8739   -2.1713   59.3030 H       1  ZINC000845755710    0.1100
     42 H42       -11.7845   -2.6995   60.6288 H       1  ZINC000845755710    0.0800
     43 H43       -13.1911    0.0051   60.2764 H       1  ZINC000845755710    0.0800
     44 H44       -13.0740   -1.0059   61.7537 H       1  ZINC000845755710    0.1000
@<TRIPOS>BOND
     1     1     2    1
     2     1    25    1
     3     1    26    1
     4     1    27    1
     5     2    24    1
     6     2     3    1
     7     2    21    1
     8     3    20    1
     9     3     4    1
    10     3    28    1
    11     4     5    1
    12     4    29    1
    13     4    30    1
    14     5     6    1
    15     5    31    1
    16     5    32    1
    17     6     7   am
    18     6    19    1
    19     7     8    2
    20     7     9    1
    21     9    18    1
    22     9    10    2
    23    10    11    1
    24    10    33    1
    25    11    12    1
    26    12    18   ar
    27    12    13   ar
    28    13    14   ar
    29    13    34    1
    30    14    15   ar
    31    14    35    1
    32    15    16    1
    33    15    17   ar
    34    17    18   ar
    35    17    36    1
    36    19    20    1
    37    19    37    1
    38    19    38    1
    39    20    39    1
    40    20    40    1
    41    21    22    1
    42    22    23    1
    43    22    41    1
    44    22    42    1
    45    23    24    1
    46    23    43    1
    47    23    44    1
@<TRIPOS>SUBSTRUCTURE
     1 ZINC000845755710        1 TEMP              0 ****  ****    0 ROOT


##########                                Name:    ZINC000371438955
##########                DOCK_Rotatable_Bonds:                   4
##########                         Heavy_Atoms:                  25
##########                    Molecular_Weight:             387.499
##########                DOCK_Rotatable_Bonds:                   4
##########                       Formal_Charge:          -0.0299995
##########                     HBond_Acceptors:                   9
##########                        HBond_Donors:                   1
##########                         Heavy_Atoms:                  25
##########                          Grid_Score:          -25.655996
##########                     Grid_vdw_energy:          -26.187365
##########                      Grid_es_energy:            0.531368
##########           Internal_energy_repulsive:           27.422512

@<TRIPOS>MOLECULE
ZINC000371438955
 47 49 1 0 0
SMALL
USER_CHARGES


@<TRIPOS>ATOM
      1 C1         -3.5428    5.0669   52.0402 C.3     1  ZINC000371438955   -0.6800
      2 S2         -4.9091    4.0789   52.7091 S.o2    1  ZINC000371438955    2.6000
      3 O3         -4.4173    3.0851   53.5978 O.2     1  ZINC000371438955   -0.9500
      4 O4         -5.9971    4.9161   53.0759 O.2     1  ZINC000371438955   -0.9500
      5 N5         -5.4737    3.2213   51.4097 N.am    1  ZINC000371438955   -0.9900
      6 C6         -5.9715    3.9360   50.2696 C.3     1  ZINC000371438955    0.1300
      7 C7         -7.4564    4.2498   50.5179 C.3     1  ZINC000371438955   -0.1700
      8 C8         -8.3118    3.0775   50.2749 C.3     1  ZINC000371438955    0.1400
      9 N9         -7.9009    1.9505   51.1453 N.am    1  ZINC000371438955   -0.6200
     10 C10        -8.6185    1.6543   52.2470 C.2     1  ZINC000371438955    0.7100
     11 O11        -8.2820    0.7299   52.9614 O.2     1  ZINC000371438955   -0.5800
     12 N12        -9.7093    2.3829   52.5567 N.am    1  ZINC000371438955   -0.7400
     13 C13       -10.4894    2.0610   53.7542 C.3     1  ZINC000371438955    0.2000
     14 H14       -11.3930    2.6706   53.7552 H       1  ZINC000371438955    0.1100
     15 C15        -9.6649    2.4121   54.9804 C.3     1  ZINC000371438955   -0.1300
     16 C16       -10.4917    2.1155   56.2395 C.3     1  ZINC000371438955   -0.1100
     17 S17       -10.5733    0.3102   56.4201 S.3     1  ZINC000371438955   -0.1000
     18 C18       -10.9768   -0.2230   54.7871 C.ar    1  ZINC000371438955   -0.1100
     19 C19       -11.3971   -1.5456   54.6203 C.ar    1  ZINC000371438955    0.1100
     20 F20       -11.4904   -2.3590   55.6950 F       1  ZINC000371438955   -0.1300
     21 C21       -11.7178   -2.0277   53.3683 C.ar    1  ZINC000371438955   -0.1300
     22 C22       -11.6177   -1.1917   52.2707 C.ar    1  ZINC000371438955   -0.1000
     23 C23       -11.2066    0.1131   52.4332 C.ar    1  ZINC000371438955   -0.1000
     24 C24       -10.8856    0.6150   53.6950 C.ar    1  ZINC000371438955   -0.0800
     25 C25        -6.7389    1.1734   50.8156 C.3     1  ZINC000371438955    0.1000
     26 C26        -5.4426    1.7339   51.4597 C.3     1  ZINC000371438955    0.0900
     27 H27        -2.7821    4.4036   51.6288 H       1  ZINC000371438955    0.1300
     28 H28        -3.9186    5.7210   51.2533 H       1  ZINC000371438955    0.1300
     29 H29        -3.1068    5.6702   52.8365 H       1  ZINC000371438955    0.1300
     30 H30        -5.4144    4.8645   50.1446 H       1  ZINC000371438955    0.0800
     31 H31        -5.8693    3.3209   49.3756 H       1  ZINC000371438955    0.0800
     32 H32        -7.5830    4.5736   51.5509 H       1  ZINC000371438955    0.0800
     33 H33        -7.7644    5.0577   49.8540 H       1  ZINC000371438955    0.0900
     34 H34        -9.3489    3.3375   50.4868 H       1  ZINC000371438955    0.0900
     35 H35        -8.2241    2.7773   49.2306 H       1  ZINC000371438955    0.0700
     36 H36        -9.9778    3.1204   51.9867 H       1  ZINC000371438955    0.4000
     37 H37        -8.7548    1.8124   54.9920 H       1  ZINC000371438955    0.0900
     38 H38        -9.4058    3.4705   54.9550 H       1  ZINC000371438955    0.1000
     39 H39       -10.0082    2.5540   57.1124 H       1  ZINC000371438955    0.1200
     40 H40       -11.4967    2.5227   56.1276 H       1  ZINC000371438955    0.1000
     41 H41       -12.0441   -3.0498   53.2459 H       1  ZINC000371438955    0.1400
     42 H42       -11.8617   -1.5622   51.2860 H       1  ZINC000371438955    0.1300
     43 H43       -11.1300    0.7573   51.5697 H       1  ZINC000371438955    0.1400
     44 H44        -6.8898    0.1502   51.1594 H       1  ZINC000371438955    0.0800
     45 H45        -6.6160    1.1650   49.7327 H       1  ZINC000371438955    0.0900
     46 H46        -4.5755    1.3641   50.9125 H       1  ZINC000371438955    0.0800
     47 H47        -5.3829    1.4088   52.4984 H       1  ZINC000371438955    0.1000
@<TRIPOS>BOND
     1     1     2    1
     2     1    27    1
     3     1    28    1
     4     1    29    1
     5     2     3    2
     6     2     4    2
     7     2     5   am
     8     5    26    1
     9     5     6    1
    10     6     7    1
    11     6    30    1
    12     6    31    1
    13     7     8    1
    14     7    32    1
    15     7    33    1
    16     8     9    1
    17     8    34    1
    18     8    35    1
    19     9    10   am
    20     9    25    1
    21    10    11    2
    22    10    12   am
    23    12    13    1
    24    12    36    1
    25    13    14    1
    26    13    24    1
    27    13    15    1
    28    15    16    1
    29    15    37    1
    30    15    38    1
    31    16    17    1
    32    16    39    1
    33    16    40    1
    34    17    18    1
    35    18    24   ar
    36    18    19   ar
    37    19    20    1
    38    19    21   ar
    39    21    22   ar
    40    21    41    1
    41    22    23   ar
    42    22    42    1
    43    23    24   ar
    44    23    43    1
    45    25    26    1
    46    25    44    1
    47    25    45    1
    48    26    46    1
    49    26    47    1
@<TRIPOS>SUBSTRUCTURE
     1 ZINC000371438955        1 TEMP              0 ****  ****    0 ROOT


##########                                Name:    ZINC000455156110
##########                DOCK_Rotatable_Bonds:                   4
##########                         Heavy_Atoms:                  27
##########                    Molecular_Weight:             370.424
##########                DOCK_Rotatable_Bonds:                   4
##########                       Formal_Charge:           0.0100002
##########                     HBond_Acceptors:                   6
##########                        HBond_Donors:                   1
##########                         Heavy_Atoms:                  27
##########                          Grid_Score:          -25.655304
##########                     Grid_vdw_energy:          -25.650352
##########                      Grid_es_energy:           -0.004952
##########           Internal_energy_repulsive:           43.374763

@<TRIPOS>MOLECULE
ZINC000455156110
 50 53 1 0 0
SMALL
USER_CHARGES


@<TRIPOS>ATOM
      1 C1         -1.9345    3.3065   50.6777 C.3     1  ZINC000455156110    0.0300
      2 O2         -2.6125    3.6239   51.8949 O.3     1  ZINC000455156110   -0.3100
      3 C3         -3.8441    3.0757   52.0770 C.ar    1  ZINC000455156110    0.0900
      4 C4         -4.5576    3.3438   53.2346 C.ar    1  ZINC000455156110   -0.1600
      5 C5         -5.8088    2.7876   53.4203 C.ar    1  ZINC000455156110   -0.0800
      6 C6         -6.5833    3.0794   54.6797 C.3     1  ZINC000455156110   -0.1100
      7 C7         -6.3526    1.9604   52.4474 C.ar    1  ZINC000455156110    0.1500
      8 N8         -7.6219    1.3973   52.6358 N.am    1  ZINC000455156110   -0.6700
      9 C9         -8.7159    2.0294   52.1669 C.2     1  ZINC000455156110    0.7200
     10 O10        -8.6016    3.0883   51.5802 O.2     1  ZINC000455156110   -0.5500
     11 N11        -9.9367    1.4878   52.3481 N.am    1  ZINC000455156110   -0.5600
     12 C12       -10.2012    0.2236   53.0427 C.3     1  ZINC000455156110    0.1000
     13 C13       -11.7236    0.0487   52.9837 C.3     1  ZINC000455156110   -0.0200
     14 C14       -12.0808   -1.2304   52.2302 C.3     1  ZINC000455156110   -0.1400
     15 C15       -11.5944   -2.4402   53.0342 C.3     1  ZINC000455156110    0.0600
     16 O16       -12.1708   -2.4035   54.3414 O.3     1  ZINC000455156110   -0.3800
     17 C17       -11.8108   -1.2525   55.1082 C.3     1  ZINC000455156110    0.0600
     18 C18       -12.3068    0.0088   54.3944 C.3     1  ZINC000455156110   -0.1400
     19 C19       -12.2273    1.2591   52.2385 C.ar    1  ZINC000455156110   -0.1300
     20 C20       -13.5058    1.6440   51.8835 C.ar    1  ZINC000455156110   -0.0700
     21 C21       -13.7100    2.8221   51.1892 C.ar    1  ZINC000455156110   -0.1400
     22 C22       -12.6305    3.6164   50.8496 C.ar    1  ZINC000455156110   -0.0900
     23 C23       -11.3525    3.2365   51.2007 C.ar    1  ZINC000455156110   -0.1300
     24 C24       -11.1383    2.0519   51.9066 C.ar    1  ZINC000455156110    0.1600
     25 C25        -5.6388    1.6916   51.2870 C.ar    1  ZINC000455156110   -0.1200
     26 C26        -4.3891    2.2519   51.0997 C.ar    1  ZINC000455156110    0.0900
     27 F27        -3.6939    1.9914   49.9709 F       1  ZINC000455156110   -0.1300
     28 H28        -0.9664    3.8070   50.6599 H       1  ZINC000455156110    0.1000
     29 H29        -1.7875    2.2283   50.6143 H       1  ZINC000455156110    0.0600
     30 H30        -2.5327    3.6420   49.8305 H       1  ZINC000455156110    0.0600
     31 H31        -4.1353    3.9876   53.9919 H       1  ZINC000455156110    0.1400
     32 H32        -7.2002    3.9655   54.5298 H       1  ZINC000455156110    0.0800
     33 H33        -7.2215    2.2287   54.9192 H       1  ZINC000455156110    0.0600
     34 H34        -5.8886    3.2550   55.5011 H       1  ZINC000455156110    0.0800
     35 H35        -7.7130    0.5525   53.1037 H       1  ZINC000455156110    0.4100
     36 H36        -9.7052   -0.6010   52.5306 H       1  ZINC000455156110    0.0800
     37 H37        -9.8668    0.2833   54.0784 H       1  ZINC000455156110    0.0900
     38 H38       -13.1618   -1.2884   52.1030 H       1  ZINC000455156110    0.0800
     39 H39       -11.5981   -1.2244   51.2530 H       1  ZINC000455156110    0.0800
     40 H40       -11.8966   -3.3577   52.5292 H       1  ZINC000455156110    0.1000
     41 H41       -10.5078   -2.4101   53.1149 H       1  ZINC000455156110    0.0500
     42 H42       -12.2684   -1.3155   56.0955 H       1  ZINC000455156110    0.1000
     43 H43       -10.7265   -1.2091   55.2118 H       1  ZINC000455156110    0.0500
     44 H44       -11.9838    0.8910   54.9471 H       1  ZINC000455156110    0.0800
     45 H45       -13.3952   -0.0086   54.3382 H       1  ZINC000455156110    0.0800
     46 H46       -14.3483    1.0226   52.1488 H       1  ZINC000455156110    0.1300
     47 H47       -14.7102    3.1208   50.9125 H       1  ZINC000455156110    0.1300
     48 H48       -12.7888    4.5370   50.3075 H       1  ZINC000455156110    0.1300
     49 H49       -10.5133    3.8611   50.9320 H       1  ZINC000455156110    0.1400
     50 H50        -6.0614    1.0482   50.5295 H       1  ZINC000455156110    0.1700
@<TRIPOS>BOND
     1     1     2    1
     2     1    28    1
     3     1    29    1
     4     1    30    1
     5     2     3    1
     6     3    26   ar
     7     3     4   ar
     8     4     5   ar
     9     4    31    1
    10     5     6    1
    11     5     7   ar
    12     6    32    1
    13     6    33    1
    14     6    34    1
    15     7     8    1
    16     7    25   ar
    17     8     9   am
    18     8    35    1
    19     9    10    2
    20     9    11   am
    21    11    24    1
    22    11    12    1
    23    12    13    1
    24    12    36    1
    25    12    37    1
    26    13    18    1
    27    13    14    1
    28    13    19    1
    29    14    15    1
    30    14    38    1
    31    14    39    1
    32    15    16    1
    33    15    40    1
    34    15    41    1
    35    16    17    1
    36    17    18    1
    37    17    42    1
    38    17    43    1
    39    18    44    1
    40    18    45    1
    41    19    24   ar
    42    19    20   ar
    43    20    21   ar
    44    20    46    1
    45    21    22   ar
    46    21    47    1
    47    22    23   ar
    48    22    48    1
    49    23    24   ar
    50    23    49    1
    51    25    26   ar
    52    25    50    1
    53    26    27    1
@<TRIPOS>SUBSTRUCTURE
     1 ZINC000455156110        1 TEMP              0 ****  ****    0 ROOT


##########                                Name:    ZINC000464706598
##########                DOCK_Rotatable_Bonds:                   4
##########                         Heavy_Atoms:                  26
##########                    Molecular_Weight:             412.286
##########                DOCK_Rotatable_Bonds:                   4
##########                       Formal_Charge:           0.0100001
##########                     HBond_Acceptors:                   5
##########                        HBond_Donors:                   0
##########                         Heavy_Atoms:                  26
##########                          Grid_Score:          -25.652042
##########                     Grid_vdw_energy:          -25.288828
##########                      Grid_es_energy:           -0.363214
##########           Internal_energy_repulsive:           56.785690

@<TRIPOS>MOLECULE
ZINC000464706598
 44 47 1 0 0
SMALL
USER_CHARGES


@<TRIPOS>ATOM
      1 O1         -9.8016    0.3100   54.9958 O.2     1  ZINC000464706598   -0.5000
      2 C2        -10.7902   -0.0179   55.6234 C.2     1  ZINC000464706598    0.5900
      3 C3        -10.6560   -0.5074   57.0074 C.2     1  ZINC000464706598   -0.2800
      4 C4        -10.2337    0.2257   58.0985 C.2     1  ZINC000464706598    0.1300
      5 N5        -10.2558   -0.5932   59.1657 N.pl3   1  ZINC000464706598   -0.3100
      6 C6         -9.8994   -0.2424   60.4752 C.ar    1  ZINC000464706598    0.1700
      7 C7        -10.5585    0.7951   61.1210 C.ar    1  ZINC000464706598   -0.1300
      8 C8        -10.2057    1.1384   62.4114 C.ar    1  ZINC000464706598   -0.0600
      9 C9         -9.1961    0.4499   63.0604 C.ar    1  ZINC000464706598   -0.1000
     10 Br10       -8.7153    0.9232   64.8269 Br      1  ZINC000464706598   -0.0400
     11 C11        -8.5381   -0.5847   62.4192 C.ar    1  ZINC000464706598   -0.0700
     12 C12        -8.8906   -0.9355   61.1307 C.ar    1  ZINC000464706598   -0.1100
     13 N13       -10.6954   -1.8542   58.7475 N.2     1  ZINC000464706598   -0.2800
     14 C14       -10.9413   -1.8131   57.4668 C.2     1  ZINC000464706598    0.0700
     15 N15       -12.0093    0.0716   55.0556 N.am    1  ZINC000464706598   -0.6100
     16 C16       -13.2205   -0.3134   55.7972 C.3     1  ZINC000464706598    0.0400
     17 C17       -14.0366   -1.2741   54.9249 C.3     1  ZINC000464706598    0.0500
     18 O18       -14.2404   -0.6843   53.6387 O.3     1  ZINC000464706598   -0.3700
     19 C19       -13.0357   -0.4456   52.9068 C.3     1  ZINC000464706598    0.0500
     20 C20       -12.1688    0.5629   53.6776 C.3     1  ZINC000464706598    0.1600
     21 H21       -12.6570    1.5374   53.6838 H       1  ZINC000464706598    0.0900
     22 C22       -10.8172    0.6765   53.0210 C.ar    1  ZINC000464706598   -0.0500
     23 C23       -10.2206    1.9153   52.8772 C.ar    1  ZINC000464706598   -0.1000
     24 C24        -8.9808    2.0196   52.2749 C.ar    1  ZINC000464706598   -0.1100
     25 C25        -8.3373    0.8852   51.8168 C.ar    1  ZINC000464706598   -0.1200
     26 C26        -8.9334   -0.3536   51.9615 C.ar    1  ZINC000464706598   -0.1100
     27 C27       -10.1713   -0.4584   52.5677 C.ar    1  ZINC000464706598   -0.1000
     28 H28        -9.9393    1.2647   58.0957 H       1  ZINC000464706598    0.1900
     29 H29       -11.3461    1.3333   60.6147 H       1  ZINC000464706598    0.1400
     30 H30       -10.7180    1.9454   62.9142 H       1  ZINC000464706598    0.1500
     31 H31        -7.7507   -1.1208   62.9280 H       1  ZINC000464706598    0.1500
     32 H32        -8.3770   -1.7433   60.6307 H       1  ZINC000464706598    0.1500
     33 H33       -11.2948   -2.6351   56.8621 H       1  ZINC000464706598    0.2100
     34 H34       -12.9399   -0.8096   56.7263 H       1  ZINC000464706598    0.1200
     35 H35       -13.8129    0.5744   56.0189 H       1  ZINC000464706598    0.0800
     36 H36       -13.4952   -2.2134   54.8130 H       1  ZINC000464706598    0.0600
     37 H37       -15.0014   -1.4629   55.3957 H       1  ZINC000464706598    0.1100
     38 H38       -12.4906   -1.3819   52.7876 H       1  ZINC000464706598    0.0600
     39 H39       -13.2804   -0.0384   51.9257 H       1  ZINC000464706598    0.1100
     40 H40       -10.7234    2.8016   53.2351 H       1  ZINC000464706598    0.1100
     41 H41        -8.5151    2.9875   52.1619 H       1  ZINC000464706598    0.1200
     42 H42        -7.3689    0.9668   51.3456 H       1  ZINC000464706598    0.1200
     43 H43        -8.4308   -1.2399   51.6033 H       1  ZINC000464706598    0.1200
     44 H44       -10.6370   -1.4263   52.6807 H       1  ZINC000464706598    0.1100
@<TRIPOS>BOND
     1     1     2    2
     2     2     3    1
     3     2    15   am
     4     3    14    1
     5     3     4    2
     6     4     5    1
     7     4    28    1
     8     5     6    1
     9     5    13    1
    10     6    12   ar
    11     6     7   ar
    12     7     8   ar
    13     7    29    1
    14     8     9   ar
    15     8    30    1
    16     9    10    1
    17     9    11   ar
    18    11    12   ar
    19    11    31    1
    20    12    32    1
    21    13    14    2
    22    14    33    1
    23    15    20    1
    24    15    16    1
    25    16    17    1
    26    16    34    1
    27    16    35    1
    28    17    18    1
    29    17    36    1
    30    17    37    1
    31    18    19    1
    32    19    20    1
    33    19    38    1
    34    19    39    1
    35    20    21    1
    36    20    22    1
    37    22    27   ar
    38    22    23   ar
    39    23    24   ar
    40    23    40    1
    41    24    25   ar
    42    24    41    1
    43    25    26   ar
    44    25    42    1
    45    26    27   ar
    46    26    43    1
    47    27    44    1
@<TRIPOS>SUBSTRUCTURE
     1 ZINC000464706598        1 TEMP              0 ****  ****    0 ROOT


##########                                Name:    ZINC000186105981
##########                DOCK_Rotatable_Bonds:                   6
##########                         Heavy_Atoms:                  26
##########                    Molecular_Weight:             396.873
##########                DOCK_Rotatable_Bonds:                   6
##########                       Formal_Charge:          -0.0400003
##########                     HBond_Acceptors:                   9
##########                        HBond_Donors:                   1
##########                         Heavy_Atoms:                  26
##########                          Grid_Score:          -25.643948
##########                     Grid_vdw_energy:          -26.107229
##########                      Grid_es_energy:            0.463281
##########           Internal_energy_repulsive:           13.222917

@<TRIPOS>MOLECULE
ZINC000186105981
 44 46 1 0 0
SMALL
USER_CHARGES


@<TRIPOS>ATOM
      1 C1          0.9081    6.0872   52.8529 C.3     1  ZINC000186105981   -0.1400
      2 C2         -0.4119    5.3139   52.8762 C.3     1  ZINC000186105981   -0.1100
      3 C3         -1.5281    6.2256   53.3900 C.3     1  ZINC000186105981   -0.1600
      4 C4         -0.7508    4.8408   51.4612 C.3     1  ZINC000186105981    0.1600
      5 H5         -0.8730    5.7051   50.8086 H       1  ZINC000186105981    0.1200
      6 C6         -2.0320    4.0479   51.4900 C.2     1  ZINC000186105981    0.4900
      7 O7         -2.2062    3.2078   52.3472 O.2     1  ZINC000186105981   -0.4300
      8 N8         -2.9844    4.2723   50.5631 N.am    1  ZINC000186105981   -0.6300
      9 C9         -4.1659    3.5411   50.5896 C.2     1  ZINC000186105981    0.2400
     10 N10        -4.7349    2.9656   49.5690 N.2     1  ZINC000186105981   -0.2600
     11 N11        -5.8098    2.3385   49.7732 N.2     1  ZINC000186105981   -0.2000
     12 C12        -6.2733    2.3118   50.9913 C.2     1  ZINC000186105981    0.0300
     13 C13        -7.5093    1.6355   51.4379 C.ar    1  ZINC000186105981   -0.0500
     14 C14        -7.4974    0.2676   51.7232 C.ar    1  ZINC000186105981    0.1300
     15 F15        -6.3551   -0.4418   51.5914 F       1  ZINC000186105981   -0.1200
     16 C16        -8.6573   -0.3576   52.1408 C.ar    1  ZINC000186105981   -0.1400
     17 C17        -9.8269    0.3677   52.2765 C.ar    1  ZINC000186105981   -0.0600
     18 C18        -9.8456    1.7224   51.9952 C.ar    1  ZINC000186105981   -0.1200
     19 C19        -8.6936    2.3617   51.5826 C.ar    1  ZINC000186105981    0.0200
     20 Cl20       -8.7201    4.0615   51.2311 Cl      1  ZINC000186105981   -0.0100
     21 S21        -5.1581    3.2206   52.0134 S.3     1  ZINC000186105981    0.1200
     22 N22         0.3346    3.9966   50.9556 N.am    1  ZINC000186105981   -0.6100
     23 C23         0.9472    2.8959   51.7089 C.3     1  ZINC000186105981    0.1000
     24 C24         1.6979    2.0462   50.6597 C.3     1  ZINC000186105981   -0.1300
     25 C25         1.9765    3.0877   49.5513 C.3     1  ZINC000186105981   -0.1600
     26 C26         0.8934    4.1268   49.7400 C.2     1  ZINC000186105981    0.5200
     27 O27         0.5798    4.9607   48.9172 O.2     1  ZINC000186105981   -0.5000
     28 H28         1.1494    6.4243   53.8610 H       1  ZINC000186105981    0.0600
     29 H29         1.7032    5.4377   52.4869 H       1  ZINC000186105981    0.0600
     30 H30         0.8120    6.9504   52.1944 H       1  ZINC000186105981    0.0600
     31 H31        -0.3158    4.4507   53.5347 H       1  ZINC000186105981    0.0900
     32 H32        -1.6876    7.0391   52.6822 H       1  ZINC000186105981    0.0600
     33 H33        -2.4477    5.6501   53.4954 H       1  ZINC000186105981    0.0600
     34 H34        -1.2441    6.6373   54.3585 H       1  ZINC000186105981    0.0700
     35 H35        -2.8451    4.9442   49.8775 H       1  ZINC000186105981    0.4200
     36 H36        -8.6501   -1.4147   52.3614 H       1  ZINC000186105981    0.1500
     37 H37       -10.7303   -0.1258   52.6032 H       1  ZINC000186105981    0.1500
     38 H38       -10.7630    2.2821   52.1031 H       1  ZINC000186105981    0.1500
     39 H39         1.6466    3.2877   52.4473 H       1  ZINC000186105981    0.0700
     40 H40         0.1772    2.2987   52.1972 H       1  ZINC000186105981    0.0800
     41 H41         2.6287    1.6538   51.0691 H       1  ZINC000186105981    0.0900
     42 H42         1.0666    1.2394   50.2871 H       1  ZINC000186105981    0.0800
     43 H43         2.9633    3.5312   49.6839 H       1  ZINC000186105981    0.1100
     44 H44         1.8929    2.6282   48.5663 H       1  ZINC000186105981    0.1000
@<TRIPOS>BOND
     1     1     2    1
     2     1    28    1
     3     1    29    1
     4     1    30    1
     5     2     3    1
     6     2     4    1
     7     2    31    1
     8     3    32    1
     9     3    33    1
    10     3    34    1
    11     4     5    1
    12     4     6    1
    13     4    22    1
    14     6     7    2
    15     6     8   am
    16     8     9    1
    17     8    35    1
    18     9    21    1
    19     9    10    2
    20    10    11    1
    21    11    12    2
    22    12    13    1
    23    12    21    1
    24    13    19   ar
    25    13    14   ar
    26    14    15    1
    27    14    16   ar
    28    16    17   ar
    29    16    36    1
    30    17    18   ar
    31    17    37    1
    32    18    19   ar
    33    18    38    1
    34    19    20    1
    35    22    26   am
    36    22    23    1
    37    23    24    1
    38    23    39    1
    39    23    40    1
    40    24    25    1
    41    24    41    1
    42    24    42    1
    43    25    26    1
    44    25    43    1
    45    25    44    1
    46    26    27    2
@<TRIPOS>SUBSTRUCTURE
     1 ZINC000186105981        1 TEMP              0 ****  ****    0 ROOT


##########                                Name:    ZINC001013196242
##########                DOCK_Rotatable_Bonds:                   5
##########                         Heavy_Atoms:                  24
##########                    Molecular_Weight:              349.86
##########                DOCK_Rotatable_Bonds:                   5
##########                       Formal_Charge:        -3.05474e-07
##########                     HBond_Acceptors:                   6
##########                        HBond_Donors:                   1
##########                         Heavy_Atoms:                  24
##########                          Grid_Score:          -25.593647
##########                     Grid_vdw_energy:          -22.561298
##########                      Grid_es_energy:           -3.032349
##########           Internal_energy_repulsive:            9.804962

@<TRIPOS>MOLECULE
ZINC001013196242
 48 51 1 0 0
SMALL
USER_CHARGES


@<TRIPOS>ATOM
      1 C1        -11.0514    1.7511   53.3728 C.3     1  ZINC001013196242   -0.1600
      2 C2        -10.2209    2.8032   54.1105 C.3     1  ZINC001013196242    0.1400
      3 H3        -10.7864    3.7315   54.1917 H       1  ZINC001013196242    0.0800
      4 C4         -8.9014    3.0572   53.3516 C.3     1  ZINC001013196242   -0.1400
      5 C5         -7.8698    3.2323   54.4973 C.3     1  ZINC001013196242    0.1300
      6 H6         -7.8886    4.2497   54.8879 H       1  ZINC001013196242    0.1100
      7 N7         -6.5226    2.8689   54.0510 N.am    1  ZINC001013196242   -0.7200
      8 C8         -5.7110    3.8075   53.5248 C.2     1  ZINC001013196242    0.5400
      9 O9         -6.0954    4.9532   53.4224 O.2     1  ZINC001013196242   -0.5200
     10 C10        -4.3259    3.4334   53.0640 C.3     1  ZINC001013196242   -0.1400
     11 C11        -4.2920    2.1835   52.1668 C.3     1  ZINC001013196242   -0.0800
     12 C12        -4.4773    3.1337   50.9789 C.3     1  ZINC001013196242   -0.1600
     13 C13        -4.2706    2.8521   49.4949 C.3     1  ZINC001013196242   -0.1700
     14 C14        -5.6571    3.2366   50.0186 C.3     1  ZINC001013196242   -0.1400
     15 C15        -3.8470    4.2337   51.8399 C.3     1  ZINC001013196242   -0.0800
     16 C16        -8.3982    2.2242   55.5483 C.3     1  ZINC001013196242    0.0800
     17 N17        -9.8698    2.3129   55.4513 N.am    1  ZINC001013196242   -0.6000
     18 C18       -10.7418    1.9953   56.4285 C.2     1  ZINC001013196242    0.6100
     19 O19       -11.9384    2.1060   56.2359 O.2     1  ZINC001013196242   -0.5400
     20 C20       -10.2489    1.5161   57.7241 C.2     1  ZINC001013196242   -0.0400
     21 C21       -10.1559    0.1999   58.1244 C.2     1  ZINC001013196242   -0.1400
     22 C22        -9.6364    0.2007   59.4232 C.2     1  ZINC001013196242   -0.1200
     23 Cl23       -9.3175   -1.2002   60.3975 Cl      1  ZINC001013196242   -0.0400
     24 C24        -9.4257    1.4894   59.7856 C.2     1  ZINC001013196242    0.0400
     25 N25        -9.7893    2.2982   58.7593 N.pl3   1  ZINC001013196242   -0.4000
     26 C26        -9.7134    3.7613   58.7563 C.3     1  ZINC001013196242    0.0700
     27 H27       -11.9787    1.5729   53.9172 H       1  ZINC001013196242    0.0700
     28 H28       -11.2821    2.1085   52.3691 H       1  ZINC001013196242    0.0700
     29 H29       -10.4848    0.8222   53.3063 H       1  ZINC001013196242    0.0600
     30 H30        -8.6440    2.2007   52.7285 H       1  ZINC001013196242    0.0900
     31 H31        -8.9698    3.9649   52.7523 H       1  ZINC001013196242    0.0900
     32 H32        -6.2147    1.9528   54.1341 H       1  ZINC001013196242    0.4000
     33 H33        -3.6018    3.4071   53.8784 H       1  ZINC001013196242    0.1000
     34 H34        -3.3308    1.6693   52.1696 H       1  ZINC001013196242    0.1000
     35 H35        -5.1345    1.5100   52.3236 H       1  ZINC001013196242    0.0700
     36 H36        -3.7284    3.5966   48.9118 H       1  ZINC001013196242    0.1000
     37 H37        -4.1149    1.8156   49.1959 H       1  ZINC001013196242    0.0900
     38 H38        -6.4132    2.4529   50.0643 H       1  ZINC001013196242    0.0900
     39 H39        -6.0267    4.2340   49.7802 H       1  ZINC001013196242    0.1000
     40 H40        -4.3327    5.2037   51.7344 H       1  ZINC001013196242    0.0800
     41 H41        -2.7620    4.2902   51.7517 H       1  ZINC001013196242    0.0900
     42 H42        -8.0611    1.2156   55.3094 H       1  ZINC001013196242    0.0800
     43 H43        -8.0673    2.5092   56.5471 H       1  ZINC001013196242    0.1000
     44 H44       -10.4327   -0.6682   57.5446 H       1  ZINC001013196242    0.1600
     45 H45        -9.0293    1.8185   60.7348 H       1  ZINC001013196242    0.1800
     46 H46        -8.7819    4.0757   58.2857 H       1  ZINC001013196242    0.0800
     47 H47       -10.5573    4.1677   58.1989 H       1  ZINC001013196242    0.1000
     48 H48        -9.7445    4.1289   59.7820 H       1  ZINC001013196242    0.0900
@<TRIPOS>BOND
     1     1     2    1
     2     1    27    1
     3     1    28    1
     4     1    29    1
     5     2     3    1
     6     2    17    1
     7     2     4    1
     8     4     5    1
     9     4    30    1
    10     4    31    1
    11     5     6    1
    12     5     7    1
    13     5    16    1
    14     7     8   am
    15     7    32    1
    16     8     9    2
    17     8    10    1
    18    10    15    1
    19    10    11    1
    20    10    33    1
    21    11    12    1
    22    11    34    1
    23    11    35    1
    24    12    14    1
    25    12    13    1
    26    12    15    1
    27    13    14    1
    28    13    36    1
    29    13    37    1
    30    14    38    1
    31    14    39    1
    32    15    40    1
    33    15    41    1
    34    16    17    1
    35    16    42    1
    36    16    43    1
    37    17    18   am
    38    18    19    2
    39    18    20    1
    40    20    25    1
    41    20    21    2
    42    21    22    1
    43    21    44    1
    44    22    23    1
    45    22    24    2
    46    24    25    1
    47    24    45    1
    48    25    26    1
    49    26    46    1
    50    26    47    1
    51    26    48    1
@<TRIPOS>SUBSTRUCTURE
     1 ZINC001013196242        1 TEMP              0 ****  ****    0 ROOT


##########                                Name:    ZINC000899027326
##########                DOCK_Rotatable_Bonds:                   5
##########                         Heavy_Atoms:                  22
##########                    Molecular_Weight:             346.169
##########                DOCK_Rotatable_Bonds:                   5
##########                       Formal_Charge:           0.0300005
##########                     HBond_Acceptors:                   9
##########                        HBond_Donors:                   1
##########                         Heavy_Atoms:                  22
##########                          Grid_Score:          -25.560377
##########                     Grid_vdw_energy:          -25.085024
##########                      Grid_es_energy:           -0.475354
##########           Internal_energy_repulsive:           12.644010

@<TRIPOS>MOLECULE
ZINC000899027326
 35 36 1 0 0
SMALL
USER_CHARGES


@<TRIPOS>ATOM
      1 C1        -10.7580    1.7357   62.3985 C.3     1  ZINC000899027326   -0.1500
      2 C2        -10.8130    0.2265   62.1528 C.3     1  ZINC000899027326    0.1100
      3 H3        -11.3784   -0.2690   62.9421 H       1  ZINC000899027326    0.1400
      4 C4        -11.4189   -0.0711   60.7955 C.2     1  ZINC000899027326    0.5300
      5 O5        -12.5352    0.2088   60.4146 O.2     1  ZINC000899027326   -0.4500
      6 N6        -10.4580   -0.7109   60.1001 N.am    1  ZINC000899027326   -0.3700
      7 N7        -10.6098   -1.1657   58.7836 N.am    1  ZINC000899027326   -0.5000
      8 C8        -11.0646   -2.4126   58.5497 C.2     1  ZINC000899027326    0.5200
      9 O9        -11.3436   -3.1406   59.4787 O.2     1  ZINC000899027326   -0.4800
     10 C10       -11.2262   -2.9024   57.1337 C.3     1  ZINC000899027326    0.0500
     11 O11       -12.3993   -3.7132   57.0410 O.3     1  ZINC000899027326   -0.2700
     12 C12       -13.5975   -3.0778   57.1326 C.ar    1  ZINC000899027326    0.1400
     13 C13       -13.6473   -1.6929   57.1784 C.ar    1  ZINC000899027326   -0.1900
     14 C14       -14.8663   -1.0486   57.2715 C.ar    1  ZINC000899027326   -0.0600
     15 C15       -16.0370   -1.7840   57.3191 C.ar    1  ZINC000899027326   -0.0600
     16 Cl16      -17.5668   -0.9717   57.4354 Cl      1  ZINC000899027326   -0.0500
     17 C17       -15.9904   -3.1664   57.2736 C.ar    1  ZINC000899027326   -0.0600
     18 C18       -14.7737   -3.8145   57.1746 C.ar    1  ZINC000899027326   -0.0500
     19 Cl19      -14.7152   -5.5487   57.1175 Cl      1  ZINC000899027326   -0.0300
     20 C20        -9.3410   -0.8574   60.8218 C.2     1  ZINC000899027326    0.7000
     21 O21        -8.3368   -1.4035   60.4090 O.2     1  ZINC000899027326   -0.5200
     22 N22        -9.4537   -0.3333   62.0593 N.am    1  ZINC000899027326   -0.6200
     23 C23        -8.4243   -0.3208   63.1017 C.3     1  ZINC000899027326    0.1200
     24 H24       -10.2002    2.2147   61.5939 H       1  ZINC000899027326    0.0700
     25 H25       -11.7713    2.1363   62.4269 H       1  ZINC000899027326    0.0900
     26 H26       -10.2633    1.9310   63.3500 H       1  ZINC000899027326    0.0900
     27 H27       -10.3878   -0.5830   58.0406 H       1  ZINC000899027326    0.4300
     28 H28       -11.3206   -2.0488   56.4625 H       1  ZINC000899027326    0.1100
     29 H29       -10.3539   -3.4919   56.8513 H       1  ZINC000899027326    0.1100
     30 H30       -12.7338   -1.1180   57.1416 H       1  ZINC000899027326    0.1500
     31 H31       -14.9050    0.0300   57.3076 H       1  ZINC000899027326    0.1500
     32 H32       -16.9055   -3.7389   57.3108 H       1  ZINC000899027326    0.1500
     33 H33        -7.5241   -0.8096   62.7292 H       1  ZINC000899027326    0.0900
     34 H34        -8.1930    0.7095   63.3716 H       1  ZINC000899027326    0.0700
     35 H35        -8.7899   -0.8532   63.9798 H       1  ZINC000899027326    0.0700
@<TRIPOS>BOND
     1     1     2    1
     2     1    24    1
     3     1    25    1
     4     1    26    1
     5     2     3    1
     6     2    22    1
     7     2     4    1
     8     4     5    2
     9     4     6   am
    10     6     7    1
    11     6    20   am
    12     7     8   am
    13     7    27    1
    14     8     9    2
    15     8    10    1
    16    10    11    1
    17    10    28    1
    18    10    29    1
    19    11    12    1
    20    12    18   ar
    21    12    13   ar
    22    13    14   ar
    23    13    30    1
    24    14    15   ar
    25    14    31    1
    26    15    16    1
    27    15    17   ar
    28    17    18   ar
    29    17    32    1
    30    18    19    1
    31    20    21    2
    32    20    22   am
    33    22    23    1
    34    23    33    1
    35    23    34    1
    36    23    35    1
@<TRIPOS>SUBSTRUCTURE
     1 ZINC000899027326        1 TEMP              0 ****  ****    0 ROOT


##########                                Name:    ZINC000192150625
##########                DOCK_Rotatable_Bonds:                   5
##########                         Heavy_Atoms:                  28
##########                    Molecular_Weight:             377.443
##########                DOCK_Rotatable_Bonds:                   5
##########                       Formal_Charge:           0.0199997
##########                     HBond_Acceptors:                   6
##########                        HBond_Donors:                   1
##########                         Heavy_Atoms:                  28
##########                          Grid_Score:          -25.534784
##########                     Grid_vdw_energy:          -25.101124
##########                      Grid_es_energy:           -0.433661
##########           Internal_energy_repulsive:           13.495948

@<TRIPOS>MOLECULE
ZINC000192150625
 51 54 1 0 0
SMALL
USER_CHARGES


@<TRIPOS>ATOM
      1 C1        -15.8470   -2.1743   55.0204 C.3     1  ZINC000192150625   -0.0800
      2 C2        -14.5394   -1.5271   54.6428 C.2     1  ZINC000192150625    0.0400
      3 C3        -14.3328   -0.2057   54.5624 C.2     1  ZINC000192150625   -0.1800
      4 C4        -15.3387    0.8852   54.8251 C.3     1  ZINC000192150625   -0.0800
      5 C5        -12.9294   -0.0342   54.1671 C.ar    1  ZINC000192150625   -0.1000
      6 C6        -12.1163    1.0701   53.9205 C.ar    1  ZINC000192150625   -0.0700
      7 C7        -10.7954    0.8770   53.5542 C.ar    1  ZINC000192150625    0.1200
      8 N8         -9.9715    1.9796   53.3050 N.am    1  ZINC000192150625   -0.6400
      9 C9        -10.1974    2.7602   52.2298 C.2     1  ZINC000192150625    0.5100
     10 O10       -11.1159    2.5066   51.4778 O.2     1  ZINC000192150625   -0.4900
     11 C11        -9.3178    3.9374   51.9636 C.2     1  ZINC000192150625    0.5100
     12 O12        -9.5808    5.0151   52.4559 O.2     1  ZINC000192150625   -0.5200
     13 N13        -8.2318    3.8030   51.1768 N.am    1  ZINC000192150625   -0.5800
     14 C14        -7.3535    4.9504   50.9107 C.3     1  ZINC000192150625    0.0500
     15 C15        -5.9144    4.5622   51.2644 C.3     1  ZINC000192150625   -0.1200
     16 C16        -5.5325    3.2890   50.5059 C.3     1  ZINC000192150625   -0.0500
     17 C17        -4.1059    2.9232   50.8253 C.ar    1  ZINC000192150625   -0.0300
     18 C18        -3.2962    2.3252   49.8720 C.ar    1  ZINC000192150625   -0.1700
     19 C19        -1.9928    2.0039   50.2011 C.ar    1  ZINC000192150625    0.1000
     20 N20        -1.5185    2.2594   51.4047 N.ar    1  ZINC000192150625   -0.4900
     21 C21        -2.2598    2.8270   52.3361 C.ar    1  ZINC000192150625    0.1000
     22 C22        -3.5702    3.1819   52.0777 C.ar    1  ZINC000192150625   -0.1700
     23 C23        -6.4585    2.1456   50.9264 C.3     1  ZINC000192150625   -0.1200
     24 C24        -7.9003    2.5049   50.5737 C.3     1  ZINC000192150625    0.1100
     25 C25       -10.2850   -0.4141   53.4338 C.ar    1  ZINC000192150625   -0.1100
     26 C26       -11.0837   -1.5097   53.6763 C.ar    1  ZINC000192150625   -0.0800
     27 C27       -12.4118   -1.3348   54.0449 C.ar    1  ZINC000192150625    0.0500
     28 O28       -13.4100   -2.1920   54.3438 O.3     1  ZINC000192150625   -0.1900
     29 H29       -15.7318   -3.2581   55.0118 H       1  ZINC000192150625    0.0800
     30 H30       -16.1392   -1.8478   56.0183 H       1  ZINC000192150625    0.0900
     31 H31       -16.6158   -1.8850   54.3038 H       1  ZINC000192150625    0.0900
     32 H32       -15.3046    1.1649   55.8781 H       1  ZINC000192150625    0.0700
     33 H33       -15.1017    1.7537   54.2106 H       1  ZINC000192150625    0.0700
     34 H34       -16.3374    0.5260   54.5768 H       1  ZINC000192150625    0.0700
     35 H35       -12.5140    2.0699   54.0140 H       1  ZINC000192150625    0.1400
     36 H36        -9.2375    2.1823   53.9058 H       1  ZINC000192150625    0.4300
     37 H37        -7.4110    5.2176   49.8554 H       1  ZINC000192150625    0.0700
     38 H38        -7.6641    5.7979   51.5217 H       1  ZINC000192150625    0.1600
     39 H39        -5.2397    5.3704   50.9819 H       1  ZINC000192150625    0.0800
     40 H40        -5.8391    4.3831   52.3370 H       1  ZINC000192150625    0.0700
     41 H41        -5.6320    3.4613   49.4342 H       1  ZINC000192150625    0.0900
     42 H42        -3.6790    2.1129   48.8847 H       1  ZINC000192150625    0.1300
     43 H43        -1.3556    1.5379   49.4641 H       1  ZINC000192150625    0.1600
     44 H44        -1.8367    3.0205   53.3106 H       1  ZINC000192150625    0.1600
     45 H45        -4.1722    3.6469   52.8445 H       1  ZINC000192150625    0.1300
     46 H46        -6.1711    1.2335   50.4032 H       1  ZINC000192150625    0.0800
     47 H47        -6.3781    1.9891   52.0022 H       1  ZINC000192150625    0.0700
     48 H48        -8.5728    1.7388   50.9599 H       1  ZINC000192150625    0.1000
     49 H49        -8.0053    2.5741   49.4910 H       1  ZINC000192150625    0.0800
     50 H50        -9.2535   -0.5570   53.1473 H       1  ZINC000192150625    0.1400
     51 H51       -10.6773   -2.5057   53.5799 H       1  ZINC000192150625    0.1400
@<TRIPOS>BOND
     1     1     2    1
     2     1    29    1
     3     1    30    1
     4     1    31    1
     5     2    28    1
     6     2     3    2
     7     3     4    1
     8     3     5    1
     9     4    32    1
    10     4    33    1
    11     4    34    1
    12     5    27   ar
    13     5     6   ar
    14     6     7   ar
    15     6    35    1
    16     7     8    1
    17     7    25   ar
    18     8     9   am
    19     8    36    1
    20     9    10    2
    21     9    11    1
    22    11    12    2
    23    11    13   am
    24    13    24    1
    25    13    14    1
    26    14    15    1
    27    14    37    1
    28    14    38    1
    29    15    16    1
    30    15    39    1
    31    15    40    1
    32    16    17    1
    33    16    23    1
    34    16    41    1
    35    17    22   ar
    36    17    18   ar
    37    18    19   ar
    38    18    42    1
    39    19    20   ar
    40    19    43    1
    41    20    21   ar
    42    21    22   ar
    43    21    44    1
    44    22    45    1
    45    23    24    1
    46    23    46    1
    47    23    47    1
    48    24    48    1
    49    24    49    1
    50    25    26   ar
    51    25    50    1
    52    26    27   ar
    53    26    51    1
    54    27    28    1
@<TRIPOS>SUBSTRUCTURE
     1 ZINC000192150625        1 TEMP              0 ****  ****    0 ROOT


##########                                Name:    ZINC000493443319
##########                DOCK_Rotatable_Bonds:                   6
##########                         Heavy_Atoms:                  25
##########                    Molecular_Weight:             348.399
##########                DOCK_Rotatable_Bonds:                   6
##########                       Formal_Charge:        -3.27826e-07
##########                     HBond_Acceptors:                   7
##########                        HBond_Donors:                   0
##########                         Heavy_Atoms:                  25
##########                          Grid_Score:          -25.517290
##########                     Grid_vdw_energy:          -25.920200
##########                      Grid_es_energy:            0.402911
##########           Internal_energy_repulsive:           86.330002

@<TRIPOS>MOLECULE
ZINC000493443319
 49 51 1 0 0
SMALL
USER_CHARGES


@<TRIPOS>ATOM
      1 C1         -6.4356    0.6940   51.4589 C.3     1  <0>        -0.1500
      2 C2         -7.6410   -0.1441   51.8893 C.3     1  <0>         0.0500
      3 O3         -8.7967    0.6920   51.9739 O.3     1  <0>        -0.3200
      4 C4         -9.9624    0.0983   52.3455 C.ar    1  <0>         0.1000
      5 C5        -11.1162    0.8569   52.4760 C.ar    1  <0>        -0.1700
      6 C6        -12.3002    0.2540   52.8535 C.ar    1  <0>        -0.1100
      7 C7        -12.3354   -1.1102   53.1016 C.ar    1  <0>         0.0800
      8 O8        -13.5010   -1.7037   53.4736 O.3     1  <0>        -0.3000
      9 C9        -14.3500   -0.9688   54.3575 C.3     1  <0>         0.1000
     10 C10       -15.3869   -0.1938   53.5418 C.3     1  <0>        -0.1800
     11 C11       -15.0643   -1.9379   55.3016 C.3     1  <0>        -0.1500
     12 C12       -13.5203   -0.0024   55.1631 C.2     1  <0>         0.5100
     13 O13       -13.8368    1.1669   55.2208 O.2     1  <0>        -0.5200
     14 N14       -12.4266   -0.4377   55.8193 N.am    1  <0>        -0.6000
     15 C15       -11.6161    0.5012   56.6050 C.3     1  <0>         0.0700
     16 C16       -11.5181   -0.0091   58.0516 C.3     1  <0>         0.1300
     17 N17       -11.2029   -1.4432   57.9909 N.am    1  <0>        -0.6300
     18 C18       -10.2055   -2.0978   58.5878 C.2     1  <0>         0.6500
     19 O19        -9.4871   -1.5929   59.4277 O.2     1  <0>        -0.5200
     20 O20       -10.0711   -3.3647   58.1730 O.3     1  <0>        -0.3200
     21 C21       -11.1396   -3.6846   57.2334 C.3     1  <0>         0.0500
     22 C22       -11.9867   -2.4027   57.1834 C.3     1  <0>         0.0800
     23 H23       -12.9805   -2.5626   57.6017 H       1  <0>         0.1100
     24 C24       -12.0438   -1.8566   55.7562 C.3     1  <0>         0.1000
     25 C25       -11.1820   -1.8690   52.9697 C.ar    1  <0>        -0.1800
     26 C26        -9.9988   -1.2666   52.5886 C.ar    1  <0>        -0.1100
     27 H27        -5.5540    0.0564   51.3944 H       1  <0>         0.0800
     28 H28        -6.6330    1.1407   50.4844 H       1  <0>         0.0700
     29 H29        -6.2610    1.4822   52.1913 H       1  <0>         0.0700
     30 H30        -7.8156   -0.9324   51.1570 H       1  <0>         0.0600
     31 H31        -7.4436   -0.5908   52.8638 H       1  <0>         0.0600
     32 H32       -11.0887    1.9192   52.2828 H       1  <0>         0.1400
     33 H33       -13.1985    0.8448   52.9558 H       1  <0>         0.1400
     34 H34       -16.0701   -0.8951   53.0626 H       1  <0>         0.0800
     35 H35       -15.9486    0.4669   54.2021 H       1  <0>         0.0900
     36 H36       -14.8807    0.3986   52.7796 H       1  <0>         0.0800
     37 H37       -14.3267   -2.5522   55.8179 H       1  <0>         0.0800
     38 H38       -15.6425   -1.3729   56.0328 H       1  <0>         0.0900
     39 H39       -15.7327   -2.5788   54.7268 H       1  <0>         0.0900
     40 H40       -10.6173    0.5697   56.1741 H       1  <0>         0.0800
     41 H41       -12.0865    1.4845   56.5964 H       1  <0>         0.1300
     42 H42       -10.7260    0.5223   58.5792 H       1  <0>         0.1100
     43 H43       -12.4694    0.1398   58.5625 H       1  <0>         0.0800
     44 H44       -10.7285   -3.9096   56.2493 H       1  <0>         0.1100
     45 H45       -11.7339   -4.5213   57.6008 H       1  <0>         0.1100
     46 H46       -12.7830   -2.4119   55.1789 H       1  <0>         0.1100
     47 H47       -11.0642   -1.9491   55.2872 H       1  <0>         0.0800
     48 H48       -11.2094   -2.9313   53.1626 H       1  <0>         0.1600
     49 H49        -9.1006   -1.8576   52.4859 H       1  <0>         0.1300
@<TRIPOS>BOND
     1     1     2    1
     2     1    27    1
     3     1    28    1
     4     1    29    1
     5     2     3    1
     6     2    30    1
     7     2    31    1
     8     3     4    1
     9     4    26   ar
    10     4     5   ar
    11     5     6   ar
    12     5    32    1
    13     6     7   ar
    14     6    33    1
    15     7     8    1
    16     7    25   ar
    17     8     9    1
    18     9    10    1
    19     9    11    1
    20     9    12    1
    21    10    34    1
    22    10    35    1
    23    10    36    1
    24    11    37    1
    25    11    38    1
    26    11    39    1
    27    12    13    2
    28    12    14   am
    29    14    24    1
    30    14    15    1
    31    15    16    1
    32    15    40    1
    33    15    41    1
    34    16    17    1
    35    16    42    1
    36    16    43    1
    37    17    22    1
    38    17    18   am
    39    18    19    2
    40    18    20    1
    41    20    21    1
    42    21    22    1
    43    21    44    1
    44    21    45    1
    45    22    23    1
    46    22    24    1
    47    24    46    1
    48    24    47    1
    49    25    26   ar
    50    25    48    1
    51    26    49    1
@<TRIPOS>SUBSTRUCTURE
     1 <0>         1 TEMP              0 ****  ****    0 ROOT


##########                                Name:      oleObject5.pdb
##########                DOCK_Rotatable_Bonds:                   5
##########                         Heavy_Atoms:                  24
##########                    Molecular_Weight:             323.438
##########                DOCK_Rotatable_Bonds:                   5
##########                       Formal_Charge:         0.000200074
##########                     HBond_Acceptors:                   4
##########                        HBond_Donors:                   2
##########                         Heavy_Atoms:                  24
##########                          Grid_Score:          -25.472282
##########                     Grid_vdw_energy:          -25.229317
##########                      Grid_es_energy:           -0.242966
##########           Internal_energy_repulsive:           11.131218

@<TRIPOS>MOLECULE
oleObject5.pdb
 49 51 1 0 0
SMALL
NO_CHARGES


@<TRIPOS>ATOM
      1 C         -11.3894   -2.8077   54.0349 C.3     1  UNL        -0.0394
      2 C         -12.4876   -1.7969   54.3503 C.ar    1  UNL        -0.0456
      3 C         -12.9876   -1.0149   53.2904 C.ar    1  UNL        -0.0590
      4 C         -13.9816   -0.0517   53.5128 C.ar    1  UNL        -0.0620
      5 C         -14.4836    0.1440   54.8051 C.ar    1  UNL        -0.0619
      6 C         -13.9924   -0.6261   55.8689 C.ar    1  UNL        -0.0565
      7 C         -12.9998   -1.6073   55.6606 C.ar    1  UNL        -0.0188
      8 C         -12.4860   -2.3936   56.8744 C.3     1  UNL         0.0906
      9 N         -11.4328   -1.6163   57.5512 N.am    1  UNL        -0.3025
     10 C         -10.4925   -2.1893   58.3883 C.2     1  UNL         0.2156
     11 O         -10.3699   -3.3977   58.4923 O.2     1  UNL        -0.2774
     12 C          -9.4898   -1.1827   58.9837 C.3     1  UNL         0.0382
     13 C          -9.3029   -1.4001   60.5092 C.3     1  UNL        -0.0292
     14 C         -10.5223   -0.8974   61.3125 C.3     1  UNL        -0.0041
     15 N         -10.7886    0.5220   61.0225 N.4     1  UNL        -0.3167
     16 C         -11.0424    0.7901   59.5957 C.3     1  UNL        -0.0041
     17 C          -9.8759    0.2957   58.7035 C.3     1  UNL        -0.0292
     18 C         -13.6303   -2.7998   57.8190 C.ar    1  UNL         0.0681
     19 N         -13.6905   -2.1559   59.0100 N.ar    1  UNL        -0.2587
     20 C         -14.6744   -2.4599   59.8771 C.ar    1  UNL         0.0272
     21 C         -15.6559   -3.4226   59.6000 C.ar    1  UNL        -0.0435
     22 C         -15.6098   -4.0933   58.3697 C.ar    1  UNL        -0.0559
     23 C         -14.5845   -3.7834   57.4561 C.ar    1  UNL        -0.0272
     24 C         -14.5395   -4.5057   56.1154 C.3     1  UNL        -0.0379
     25 H         -11.2305   -2.9064   52.9539 H       1  UNL         0.0280
     26 H         -11.6336   -3.8073   54.4111 H       1  UNL         0.0280
     27 H         -10.4333   -2.5002   54.4720 H       1  UNL         0.0280
     28 H         -12.5996   -1.1497   52.2845 H       1  UNL         0.0626
     29 H         -14.3567    0.5450   52.6863 H       1  UNL         0.0623
     30 H         -15.2488    0.8939   54.9842 H       1  UNL         0.0623
     31 H         -14.3850   -0.4506   56.8660 H       1  UNL         0.0627
     32 H         -12.0201   -3.3241   56.5368 H       1  UNL         0.0624
     33 H         -11.1684   -0.7511   57.0984 H       1  UNL         0.1504
     34 H          -8.5283   -1.3775   58.4913 H       1  UNL         0.0402
     35 H          -8.4116   -0.8526   60.8419 H       1  UNL         0.0288
     36 H          -9.1189   -2.4579   60.7347 H       1  UNL         0.0288
     37 H         -10.3311   -1.0269   62.3852 H       1  UNL         0.0428
     38 H         -11.4025   -1.5008   61.0543 H       1  UNL         0.0428
     39 H          -9.9872    1.0748   61.3246 H       1  UNL         0.1222
     40 H         -11.1848    1.8672   59.4425 H       1  UNL         0.0428
     41 H         -11.9718    0.2914   59.2937 H       1  UNL         0.0428
     42 H          -9.0007    0.9301   58.8940 H       1  UNL         0.0288
     43 H         -10.1322    0.4271   57.6443 H       1  UNL         0.0288
     44 H         -14.6752   -1.9156   60.8205 H       1  UNL         0.0840
     45 H         -16.4359   -3.6422   60.3230 H       1  UNL         0.0639
     46 H         -16.3607   -4.8411   58.1304 H       1  UNL         0.0627
     47 H         -15.3595   -5.2280   56.0178 H       1  UNL         0.0280
     48 H         -13.6012   -5.0612   55.9966 H       1  UNL         0.0280
     49 H         -14.6296   -3.7976   55.2828 H       1  UNL         0.0280
@<TRIPOS>BOND
     1     1     2    1
     2     1    25    1
     3     1    26    1
     4     1    27    1
     5     2     3   ar
     6     2     7   ar
     7     3     4   ar
     8     3    28    1
     9     4     5   ar
    10     4    29    1
    11     5     6   ar
    12     5    30    1
    13     6     7   ar
    14     6    31    1
    15     7     8    1
    16     8     9    1
    17     8    18    1
    18     8    32    1
    19     9    10   am
    20     9    33    1
    21    10    11    2
    22    10    12    1
    23    12    13    1
    24    12    17    1
    25    12    34    1
    26    13    14    1
    27    13    35    1
    28    13    36    1
    29    14    15    1
    30    14    37    1
    31    14    38    1
    32    15    16    1
    33    15    39    1
    34    16    17    1
    35    16    40    1
    36    16    41    1
    37    17    42    1
    38    17    43    1
    39    18    19   ar
    40    18    23   ar
    41    19    20   ar
    42    20    21   ar
    43    20    44    1
    44    21    22   ar
    45    21    45    1
    46    22    23   ar
    47    22    46    1
    48    23    24    1
    49    24    47    1
    50    24    48    1
    51    24    49    1
@<TRIPOS>SUBSTRUCTURE
     1 UNL         1 TEMP              0 ****  ****    0 ROOT


##########                                Name:    ZINC000794876634
##########                DOCK_Rotatable_Bonds:                   4
##########                         Heavy_Atoms:                  24
##########                    Molecular_Weight:             389.249
##########                DOCK_Rotatable_Bonds:                   4
##########                       Formal_Charge:        -4.47035e-08
##########                     HBond_Acceptors:                   5
##########                        HBond_Donors:                   0
##########                         Heavy_Atoms:                  24
##########                          Grid_Score:          -25.441591
##########                     Grid_vdw_energy:          -25.819628
##########                      Grid_es_energy:            0.378036
##########           Internal_energy_repulsive:           16.434643

@<TRIPOS>MOLECULE
ZINC000794876634
 41 43 1 0 0
SMALL
USER_CHARGES


@<TRIPOS>ATOM
      1 C1         -8.3098    0.2550   64.1262 C.3     1  ZINC000794876634    0.0200
      2 O2         -9.4458    0.9284   63.5804 O.3     1  ZINC000794876634   -0.3000
      3 C3         -9.7645    0.6527   62.2894 C.ar    1  ZINC000794876634    0.1300
      4 C4         -9.2726   -0.4972   61.6857 C.ar    1  ZINC000794876634   -0.1800
      5 C5         -9.5915   -0.7827   60.3767 C.ar    1  ZINC000794876634   -0.0400
      6 C6         -9.0557   -2.0316   59.7254 C.3     1  ZINC000794876634   -0.1200
      7 C7        -10.4146    0.0886   59.6510 C.ar    1  ZINC000794876634   -0.1000
      8 C8        -10.7563   -0.2123   58.2578 C.2     1  ZINC000794876634    0.0600
      9 C9        -10.0683    0.3858   57.2420 C.2     1  ZINC000794876634   -0.1700
     10 C10        -8.9615    1.3514   57.3537 C.2     1  ZINC000794876634    0.5700
     11 O11        -8.4804    1.7724   58.3898 O.2     1  ZINC000794876634   -0.4900
     12 N12        -8.5761    1.6851   56.1106 N.am    1  ZINC000794876634   -0.5300
     13 C13        -7.4950    2.6264   55.8081 C.3     1  ZINC000794876634    0.0800
     14 C14        -9.3283    1.0273   55.1497 C.ar    1  ZINC000794876634    0.3700
     15 N15        -9.2847    1.0628   53.8237 N.ar    1  ZINC000794876634   -0.4900
     16 C16       -10.1040    0.3469   53.0804 C.ar    1  ZINC000794876634    0.1800
     17 C17       -11.0561   -0.4825   53.6461 C.ar    1  ZINC000794876634   -0.1800
     18 Br18      -12.2160   -1.4969   52.5499 Br      1  ZINC000794876634   -0.0200
     19 C19       -11.1482   -0.5602   55.0282 C.ar    1  ZINC000794876634    0.0000
     20 C20       -10.2664    0.2017   55.7875 C.ar    1  ZINC000794876634   -0.1400
     21 C21       -10.9106    1.2488   60.2622 C.ar    1  ZINC000794876634   -0.1400
     22 C22       -10.5894    1.5229   61.5758 C.ar    1  ZINC000794876634    0.0900
     23 O23       -11.0690    2.6471   62.1722 O.3     1  ZINC000794876634   -0.3000
     24 C24       -12.0847    3.3695   61.4732 C.3     1  ZINC000794876634    0.0200
     25 H25        -8.1667    0.5646   65.1614 H       1  ZINC000794876634    0.1000
     26 H26        -8.4732   -0.8221   64.0884 H       1  ZINC000794876634    0.0600
     27 H27        -7.4232    0.5086   63.5451 H       1  ZINC000794876634    0.0600
     28 H28        -8.6381   -1.1693   62.2443 H       1  ZINC000794876634    0.1400
     29 H29        -9.7551   -2.8525   59.8835 H       1  ZINC000794876634    0.0800
     30 H30        -8.9329   -1.8597   58.6561 H       1  ZINC000794876634    0.0700
     31 H31        -8.0915   -2.2859   60.1656 H       1  ZINC000794876634    0.0700
     32 H32       -11.5525   -0.9070   58.0350 H       1  ZINC000794876634    0.1500
     33 H33        -7.0680    3.0004   56.7387 H       1  ZINC000794876634    0.0900
     34 H34        -6.7217    2.1186   55.2318 H       1  ZINC000794876634    0.0800
     35 H35        -7.8910    3.4606   55.2289 H       1  ZINC000794876634    0.0800
     36 H36       -10.0309    0.4092   52.0047 H       1  ZINC000794876634    0.1800
     37 H37       -11.8807   -1.1976   55.5010 H       1  ZINC000794876634    0.1600
     38 H38       -11.5454    1.9240   59.7076 H       1  ZINC000794876634    0.1400
     39 H39       -11.6753    3.7639   60.5432 H       1  ZINC000794876634    0.0500
     40 H40       -12.9169    2.7019   61.2498 H       1  ZINC000794876634    0.0600
     41 H41       -12.4367    4.1937   62.0937 H       1  ZINC000794876634    0.1100
@<TRIPOS>BOND
     1     1     2    1
     2     1    25    1
     3     1    26    1
     4     1    27    1
     5     2     3    1
     6     3    22   ar
     7     3     4   ar
     8     4     5   ar
     9     4    28    1
    10     5     6    1
    11     5     7   ar
    12     6    29    1
    13     6    30    1
    14     6    31    1
    15     7     8    1
    16     7    21   ar
    17     8     9    2
    18     8    32    1
    19     9    20    1
    20     9    10    1
    21    10    11    2
    22    10    12   am
    23    12    13    1
    24    12    14    1
    25    13    33    1
    26    13    34    1
    27    13    35    1
    28    14    20   ar
    29    14    15   ar
    30    15    16   ar
    31    16    17   ar
    32    16    36    1
    33    17    18    1
    34    17    19   ar
    35    19    20   ar
    36    19    37    1
    37    21    22   ar
    38    21    38    1
    39    22    23    1
    40    23    24    1
    41    24    39    1
    42    24    40    1
    43    24    41    1
@<TRIPOS>SUBSTRUCTURE
     1 ZINC000794876634        1 TEMP              0 ****  ****    0 ROOT


##########                                Name:    ZINC000648570180
##########                DOCK_Rotatable_Bonds:                   4
##########                         Heavy_Atoms:                  25
##########                    Molecular_Weight:             342.484
##########                DOCK_Rotatable_Bonds:                   4
##########                       Formal_Charge:          0.00999971
##########                     HBond_Acceptors:                   5
##########                        HBond_Donors:                   0
##########                         Heavy_Atoms:                  25
##########                          Grid_Score:          -25.388460
##########                     Grid_vdw_energy:          -25.446707
##########                      Grid_es_energy:            0.058247
##########           Internal_energy_repulsive:           99.793808

@<TRIPOS>MOLECULE
ZINC000648570180
 55 58 1 0 0
SMALL
USER_CHARGES


@<TRIPOS>ATOM
      1 C1         -5.7808    1.2836   51.4545 C.3     1  ZINC000648570180   -0.1500
      2 C2         -6.4478    2.6581   51.3719 C.3     1  ZINC000648570180   -0.0600
      3 C3         -6.8672    2.9508   49.9299 C.3     1  ZINC000648570180   -0.1400
      4 C4         -7.6784    2.7051   52.3012 C.3     1  ZINC000648570180   -0.1200
      5 C5         -7.6653    4.1432   52.8761 C.3     1  ZINC000648570180   -0.1300
      6 C6         -6.1546    4.4143   53.0846 C.3     1  ZINC000648570180   -0.1200
      7 C7         -5.4790    3.7448   51.8700 C.3     1  ZINC000648570180   -0.0700
      8 H8         -5.3084    4.4812   51.0847 H       1  ZINC000648570180    0.0800
      9 C9         -4.1515    3.1117   52.2917 C.3     1  ZINC000648570180   -0.1000
     10 H10        -4.3200    2.1870   52.8437 H       1  ZINC000648570180    0.1000
     11 C11        -3.2368    2.8669   51.0626 C.3     1  ZINC000648570180   -0.1400
     12 C12        -1.8199    2.9062   51.6728 C.3     1  ZINC000648570180    0.1200
     13 N13        -1.9082    3.6580   52.9332 N.am    1  ZINC000648570180   -0.6000
     14 C14        -0.8858    3.8985   53.7777 C.2     1  ZINC000648570180    0.5800
     15 O15        -1.0754    4.5333   54.7959 O.2     1  ZINC000648570180   -0.5200
     16 C16         0.4724    3.3875   53.4635 C.ar    1  ZINC000648570180    0.1600
     17 C17         1.5202    3.5601   54.3674 C.ar    1  ZINC000648570180   -0.2000
     18 C18         2.7724    3.0648   54.0299 C.ar    1  ZINC000648570180    0.1800
     19 N19         2.9323    2.4496   52.8718 N.ar    1  ZINC000648570180   -0.5400
     20 C20         1.9167    2.3005   52.0326 C.ar    1  ZINC000648570180    0.4800
     21 N21         2.1267    1.6497   50.8290 N.3     1  ZINC000648570180   -0.4400
     22 C22         2.1322    2.6119   49.6974 C.3     1  ZINC000648570180    0.0500
     23 C23         2.8773    1.8401   48.5795 C.3     1  ZINC000648570180   -0.1200
     24 C24         3.9707    1.0735   49.3585 C.3     1  ZINC000648570180   -0.1300
     25 C25         3.4514    0.9925   50.8059 C.3     1  ZINC000648570180    0.0400
     26 N26         0.7069    2.7529   52.3176 N.ar    1  ZINC000648570180   -0.5000
     27 C27        -3.3007    4.1060   53.1206 C.3     1  ZINC000648570180    0.1100
     28 H28        -5.3878    1.1302   52.4595 H       1  ZINC000648570180    0.0600
     29 H29        -6.5146    0.5096   51.2293 H       1  ZINC000648570180    0.0500
     30 H30        -4.9650    1.2317   50.7335 H       1  ZINC000648570180    0.0700
     31 H31        -7.5623    2.1827   49.5906 H       1  ZINC000648570180    0.0500
     32 H32        -7.3522    3.9259   49.8835 H       1  ZINC000648570180    0.0500
     33 H33        -5.9861    2.9523   49.2884 H       1  ZINC000648570180    0.0500
     34 H34        -8.5920    2.5294   51.7333 H       1  ZINC000648570180    0.0600
     35 H35        -7.5793    1.9728   53.1025 H       1  ZINC000648570180    0.0700
     36 H36        -8.0895    4.8487   52.1617 H       1  ZINC000648570180    0.0700
     37 H37        -8.1997    4.1845   53.8253 H       1  ZINC000648570180    0.0700
     38 H38        -5.9564    5.4861   53.0885 H       1  ZINC000648570180    0.0700
     39 H39        -5.8096    3.9582   54.0124 H       1  ZINC000648570180    0.0700
     40 H40        -3.4390    1.8917   50.6195 H       1  ZINC000648570180    0.0900
     41 H41        -3.3613    3.6600   50.3252 H       1  ZINC000648570180    0.0800
     42 H42        -1.4729    1.8919   51.8697 H       1  ZINC000648570180    0.0800
     43 H43        -1.1356    3.4082   50.9889 H       1  ZINC000648570180    0.0700
     44 H44         1.3615    4.0675   55.3075 H       1  ZINC000648570180    0.1600
     45 H45         3.6063    3.1812   54.7062 H       1  ZINC000648570180    0.1800
     46 H46         1.1139    2.8485   49.3887 H       1  ZINC000648570180    0.1000
     47 H47         2.6743    3.5186   49.9661 H       1  ZINC000648570180    0.0500
     48 H48         2.2045    1.1464   48.0755 H       1  ZINC000648570180    0.0800
     49 H49         3.3252    2.5318   47.8660 H       1  ZINC000648570180    0.0800
     50 H50         4.0980    0.0727   48.9456 H       1  ZINC000648570180    0.0800
     51 H51         4.9130    1.6202   49.3246 H       1  ZINC000648570180    0.0700
     52 H52         4.1359    1.5131   51.4756 H       1  ZINC000648570180    0.0900
     53 H53         3.3538   -0.0503   51.1076 H       1  ZINC000648570180    0.0900
     54 H54        -3.4272    5.1201   52.7416 H       1  ZINC000648570180    0.0700
     55 H55        -3.5766    4.0567   54.1739 H       1  ZINC000648570180    0.0800
@<TRIPOS>BOND
     1     1     2    1
     2     1    28    1
     3     1    29    1
     4     1    30    1
     5     2     7    1
     6     2     3    1
     7     2     4    1
     8     3    31    1
     9     3    32    1
    10     3    33    1
    11     4     5    1
    12     4    34    1
    13     4    35    1
    14     5     6    1
    15     5    36    1
    16     5    37    1
    17     6     7    1
    18     6    38    1
    19     6    39    1
    20     7     8    1
    21     7     9    1
    22     9    10    1
    23     9    27    1
    24     9    11    1
    25    11    12    1
    26    11    40    1
    27    11    41    1
    28    12    13    1
    29    12    42    1
    30    12    43    1
    31    13    14   am
    32    13    27    1
    33    14    15    2
    34    14    16    1
    35    16    26   ar
    36    16    17   ar
    37    17    18   ar
    38    17    44    1
    39    18    19   ar
    40    18    45    1
    41    19    20   ar
    42    20    21    1
    43    20    26   ar
    44    21    25    1
    45    21    22    1
    46    22    23    1
    47    22    46    1
    48    22    47    1
    49    23    24    1
    50    23    48    1
    51    23    49    1
    52    24    25    1
    53    24    50    1
    54    24    51    1
    55    25    52    1
    56    25    53    1
    57    27    54    1
    58    27    55    1
@<TRIPOS>SUBSTRUCTURE
     1 ZINC000648570180        1 TEMP              0 ****  ****    0 ROOT


##########                                Name:    ZINC000826324849
##########                DOCK_Rotatable_Bonds:                   4
##########                         Heavy_Atoms:                  27
##########                    Molecular_Weight:             395.374
##########                DOCK_Rotatable_Bonds:                   4
##########                       Formal_Charge:           0.0400001
##########                     HBond_Acceptors:                  13
##########                        HBond_Donors:                   1
##########                         Heavy_Atoms:                  27
##########                          Grid_Score:          -25.381824
##########                     Grid_vdw_energy:          -21.702707
##########                      Grid_es_energy:           -3.679117
##########           Internal_energy_repulsive:           85.465866

@<TRIPOS>MOLECULE
ZINC000826324849
 41 44 1 0 0
SMALL
USER_CHARGES


@<TRIPOS>ATOM
      1 C1         -8.7576   -0.2306   62.4909 C.3     1  ZINC000826324849   -0.0600
      2 C2         -9.4185   -0.8761   61.3003 C.2     1  ZINC000826324849    0.2000
      3 N3        -10.6223   -0.6261   60.8443 N.2     1  ZINC000826324849   -0.4600
      4 C4        -10.7801   -1.4309   59.7784 C.2     1  ZINC000826324849    0.1600
      5 C5        -12.0026   -1.5206   58.9018 C.3     1  ZINC000826324849    0.2200
      6 H6        -11.9667   -2.4383   58.3146 H       1  ZINC000826324849    0.1300
      7 C7        -13.2641   -1.5140   59.7727 C.3     1  ZINC000826324849    0.0600
      8 O8        -14.4159   -1.4117   58.9322 O.3     1  ZINC000826324849   -0.3600
      9 C9        -14.4798   -0.2030   58.1714 C.3     1  ZINC000826324849    0.0400
     10 C10       -13.2806   -0.1426   57.2184 C.3     1  ZINC000826324849    0.0800
     11 N11       -12.0532   -0.3579   58.0014 N.am    1  ZINC000826324849   -1.0100
     12 S12       -10.7679    0.6786   57.8740 S.o2    1  ZINC000826324849    2.7100
     13 O13       -11.2785    1.9824   58.1158 O.2     1  ZINC000826324849   -0.9300
     14 O14        -9.7126    0.1041   58.6326 O.2     1  ZINC000826324849   -0.9300
     15 C15       -10.2426    0.6538   56.1923 C.ar    1  ZINC000826324849   -0.5800
     16 C16       -10.6655   -0.3552   55.3510 C.ar    1  ZINC000826324849   -0.0400
     17 C17       -10.2545   -0.3771   54.0302 C.ar    1  ZINC000826324849   -0.0800
     18 C18        -9.4178    0.6104   53.5443 C.ar    1  ZINC000826324849   -0.1100
     19 C19        -8.9875    1.6265   54.3778 C.ar    1  ZINC000826324849    0.1300
     20 F20        -8.1701    2.5917   53.9028 F       1  ZINC000826324849   -0.1100
     21 C21        -9.4044    1.6557   55.7087 C.ar    1  ZINC000826324849    0.0500
     22 C22        -8.9470    2.7436   56.6090 C.2     1  ZINC000826324849    0.1800
     23 N23        -8.1825    2.6141   57.6751 N.2     1  ZINC000826324849   -0.2600
     24 N24        -8.0116    3.7864   58.1825 N.pl3   1  ZINC000826324849   -0.2200
     25 N25        -8.6434    4.6542   57.4719 N.2     1  ZINC000826324849   -0.0200
     26 N26        -9.2261    4.0496   56.4929 N.2     1  ZINC000826324849   -0.2600
     27 N27        -9.6846   -2.1166   59.6429 N.2     1  ZINC000826324849   -0.3800
     28 O28        -8.8874   -1.8088   60.5038 O.3     1  ZINC000826324849    0.0900
     29 H29        -7.7561   -0.6416   62.6178 H       1  ZINC000826324849    0.1000
     30 H30        -8.6911    0.8455   62.3304 H       1  ZINC000826324849    0.1100
     31 H31        -9.3477   -0.4287   63.3857 H       1  ZINC000826324849    0.1100
     32 H32       -13.3141   -2.4384   60.3481 H       1  ZINC000826324849    0.1200
     33 H33       -13.2327   -0.6625   60.4525 H       1  ZINC000826324849    0.0600
     34 H34       -15.4045   -0.1843   57.5946 H       1  ZINC000826324849    0.1200
     35 H35       -14.4527    0.6532   58.8453 H       1  ZINC000826324849    0.0600
     36 H36       -13.3737   -0.9211   56.4612 H       1  ZINC000826324849    0.0900
     37 H37       -13.2426    0.8350   56.7377 H       1  ZINC000826324849    0.1100
     38 H38       -11.3187   -1.1298   55.7249 H       1  ZINC000826324849    0.1400
     39 H39       -10.5885   -1.1689   53.3761 H       1  ZINC000826324849    0.1500
     40 H40        -9.0995    0.5879   52.5125 H       1  ZINC000826324849    0.1500
     41 H41        -7.4894    3.9838   58.9756 H       1  ZINC000826324849    0.4800
@<TRIPOS>BOND
     1     1     2    1
     2     1    29    1
     3     1    30    1
     4     1    31    1
     5     2    28    1
     6     2     3    2
     7     3     4    1
     8     4     5    1
     9     4    27    2
    10     5     6    1
    11     5    11    1
    12     5     7    1
    13     7     8    1
    14     7    32    1
    15     7    33    1
    16     8     9    1
    17     9    10    1
    18     9    34    1
    19     9    35    1
    20    10    11    1
    21    10    36    1
    22    10    37    1
    23    11    12   am
    24    12    13    2
    25    12    14    2
    26    12    15    1
    27    15    21   ar
    28    15    16   ar
    29    16    17   ar
    30    16    38    1
    31    17    18   ar
    32    17    39    1
    33    18    19   ar
    34    18    40    1
    35    19    20    1
    36    19    21   ar
    37    21    22    1
    38    22    26    1
    39    22    23    2
    40    23    24    1
    41    24    25    1
    42    24    41    1
    43    25    26    2
    44    27    28    1
@<TRIPOS>SUBSTRUCTURE
     1 ZINC000826324849        1 TEMP              0 ****  ****    0 ROOT


##########                                Name:    ZINC001708427409
##########                DOCK_Rotatable_Bonds:                   6
##########                         Heavy_Atoms:                  24
##########                    Molecular_Weight:             334.505
##########                DOCK_Rotatable_Bonds:                   6
##########                       Formal_Charge:          -0.0200006
##########                     HBond_Acceptors:                   5
##########                        HBond_Donors:                   1
##########                         Heavy_Atoms:                  24
##########                          Grid_Score:          -25.291805
##########                     Grid_vdw_energy:          -25.083460
##########                      Grid_es_energy:           -0.208346
##########           Internal_energy_repulsive:           20.914570

@<TRIPOS>MOLECULE
ZINC001708427409
 58 60 1 0 0
SMALL
USER_CHARGES


@<TRIPOS>ATOM
      1 C1        -10.9737   -0.0003   55.6129 C.3     1  ZINC001708427409   -0.1500
      2 C2        -11.4492   -1.0334   54.5896 C.3     1  ZINC001708427409   -0.1200
      3 C3        -11.6341   -0.3567   53.2299 C.3     1  ZINC001708427409    0.0000
      4 H4        -12.3403    0.4679   53.3274 H       1  ZINC001708427409    0.0800
      5 C5        -12.1741   -1.3742   52.2230 C.3     1  ZINC001708427409   -0.1400
      6 C6        -10.3080    0.1722   52.7475 C.2     1  ZINC001708427409    0.1800
      7 N7         -9.3151   -0.5358   52.2883 N.2     1  ZINC001708427409   -0.2800
      8 N8         -8.3371    0.2335   51.9663 N.2     1  ZINC001708427409   -0.3200
      9 C9         -8.6562    1.4838   52.2047 C.2     1  ZINC001708427409    0.3600
     10 N10        -7.8570    2.5944   51.9842 N.3     1  ZINC001708427409   -0.4200
     11 C11        -7.2530    2.5556   50.6234 C.3     1  ZINC001708427409    0.0400
     12 C12        -6.0121    3.4703   50.7171 C.3     1  ZINC001708427409   -0.0900
     13 H13        -6.2461    4.4658   50.3400 H       1  ZINC001708427409    0.0900
     14 C14        -4.8459    2.8661   49.9323 C.3     1  ZINC001708427409   -0.1500
     15 C15        -5.6718    3.5329   52.2303 C.3     1  ZINC001708427409   -0.0800
     16 H16        -4.6493    3.2051   52.4169 H       1  ZINC001708427409    0.0900
     17 C17        -5.8732    4.9812   52.6771 C.3     1  ZINC001708427409   -0.1100
     18 C18        -5.8631    5.0571   54.2036 C.3     1  ZINC001708427409   -0.1200
     19 C19        -7.0776    4.2985   54.7340 C.3     1  ZINC001708427409   -0.1100
     20 C20        -7.0260    2.8439   54.3129 C.3     1  ZINC001708427409   -0.1000
     21 C21        -6.6781    2.5846   52.8770 C.3     1  ZINC001708427409    0.1000
     22 H22        -6.2591    1.5797   52.8251 H       1  ZINC001708427409    0.0600
     23 N23        -9.9257    1.4844   52.7049 N.pl3   1  ZINC001708427409   -0.4700
     24 C24       -10.7123    2.6486   53.1198 C.3     1  ZINC001708427409    0.0800
     25 C25       -11.5836    3.1175   51.9529 C.3     1  ZINC001708427409    0.1200
     26 C26       -12.6102    4.1330   52.4589 C.3     1  ZINC001708427409   -0.1800
     27 C27       -10.7012    3.7718   50.8881 C.3     1  ZINC001708427409   -0.1500
     28 O28       -12.2631    1.9959   51.3849 O.3     1  ZINC001708427409   -0.5400
     29 H29       -11.7158    0.7933   55.7000 H       1  ZINC001708427409    0.0600
     30 H30       -10.8420   -0.4824   56.5816 H       1  ZINC001708427409    0.0600
     31 H31       -10.0244    0.4243   55.2864 H       1  ZINC001708427409    0.0500
     32 H32       -10.7071   -1.8269   54.5025 H       1  ZINC001708427409    0.0700
     33 H33       -12.3985   -1.4579   54.9161 H       1  ZINC001708427409    0.0800
     34 H34       -13.1333   -1.7567   52.5718 H       1  ZINC001708427409    0.0700
     35 H35       -12.3058   -0.8920   51.2543 H       1  ZINC001708427409    0.0500
     36 H36       -11.4679   -2.1987   52.1253 H       1  ZINC001708427409    0.0700
     37 H37        -6.9562    1.5382   50.3687 H       1  ZINC001708427409    0.0600
     38 H38        -7.9553    2.9431   49.8853 H       1  ZINC001708427409    0.0800
     39 H39        -5.1204    2.7818   48.8809 H       1  ZINC001708427409    0.0600
     40 H40        -3.9710    3.5089   50.0291 H       1  ZINC001708427409    0.0600
     41 H41        -4.6155    1.8769   50.3280 H       1  ZINC001708427409    0.0600
     42 H42        -5.0685    5.5989   52.2782 H       1  ZINC001708427409    0.0600
     43 H43        -6.8293    5.3466   52.3024 H       1  ZINC001708427409    0.0700
     44 H44        -4.9504    4.6011   54.5870 H       1  ZINC001708427409    0.0600
     45 H45        -5.9159    6.0992   54.5188 H       1  ZINC001708427409    0.0600
     46 H46        -7.0904    4.3570   55.8223 H       1  ZINC001708427409    0.0600
     47 H47        -7.9860    4.7542   54.3398 H       1  ZINC001708427409    0.0600
     48 H48        -6.2845    2.3362   54.9298 H       1  ZINC001708427409    0.0600
     49 H49        -7.9979    2.3948   54.5171 H       1  ZINC001708427409    0.0700
     50 H50       -11.3485    2.3759   53.9618 H       1  ZINC001708427409    0.0900
     51 H51       -10.0404    3.4536   53.4179 H       1  ZINC001708427409    0.1000
     52 H52       -12.0920    4.9885   52.8920 H       1  ZINC001708427409    0.0700
     53 H53       -13.2311    4.4670   51.6275 H       1  ZINC001708427409    0.0700
     54 H54       -13.2390    3.6668   53.2175 H       1  ZINC001708427409    0.0600
     55 H55        -9.9182    3.0758   50.5872 H       1  ZINC001708427409    0.0700
     56 H56       -11.3092    4.0315   50.0215 H       1  ZINC001708427409    0.0700
     57 H57       -10.2472    4.6746   51.2970 H       1  ZINC001708427409    0.0700
     58 H58       -11.6742    1.2898   51.0854 H       1  ZINC001708427409    0.3800
@<TRIPOS>BOND
     1     1     2    1
     2     1    29    1
     3     1    30    1
     4     1    31    1
     5     2     3    1
     6     2    32    1
     7     2    33    1
     8     3     4    1
     9     3     5    1
    10     3     6    1
    11     5    34    1
    12     5    35    1
    13     5    36    1
    14     6    23    1
    15     6     7    2
    16     7     8    1
    17     8     9    2
    18     9    10    1
    19     9    23    1
    20    10    21    1
    21    10    11    1
    22    11    12    1
    23    11    37    1
    24    11    38    1
    25    12    13    1
    26    12    14    1
    27    12    15    1
    28    14    39    1
    29    14    40    1
    30    14    41    1
    31    15    16    1
    32    15    21    1
    33    15    17    1
    34    17    18    1
    35    17    42    1
    36    17    43    1
    37    18    19    1
    38    18    44    1
    39    18    45    1
    40    19    20    1
    41    19    46    1
    42    19    47    1
    43    20    21    1
    44    20    48    1
    45    20    49    1
    46    21    22    1
    47    23    24    1
    48    24    25    1
    49    24    50    1
    50    24    51    1
    51    25    26    1
    52    25    27    1
    53    25    28    1
    54    26    52    1
    55    26    53    1
    56    26    54    1
    57    27    55    1
    58    27    56    1
    59    27    57    1
    60    28    58    1
@<TRIPOS>SUBSTRUCTURE
     1 ZINC001708427409        1 TEMP              0 ****  ****    0 ROOT


##########                                Name:    ZINC000550782577
##########                DOCK_Rotatable_Bonds:                   5
##########                         Heavy_Atoms:                  25
##########                    Molecular_Weight:              338.45
##########                DOCK_Rotatable_Bonds:                   5
##########                       Formal_Charge:         -0.00999954
##########                     HBond_Acceptors:                   4
##########                        HBond_Donors:                   0
##########                         Heavy_Atoms:                  25
##########                          Grid_Score:          -25.235338
##########                     Grid_vdw_energy:          -24.788004
##########                      Grid_es_energy:           -0.447333
##########           Internal_energy_repulsive:          147.812286

@<TRIPOS>MOLECULE
ZINC000550782577
 51 53 1 0 0
SMALL
USER_CHARGES


@<TRIPOS>ATOM
      1 C1        -14.3761   -0.8483   54.3384 C.3     1  ZINC000550782577    0.0700
      2 N2        -12.9231   -0.9588   54.4887 N.am    1  ZINC000550782577   -0.5900
      3 C3        -12.1119   -0.6152   53.4688 C.2     1  ZINC000550782577    0.5800
      4 O4        -10.9064   -0.7069   53.5934 O.2     1  ZINC000550782577   -0.5400
      5 C5        -12.6890   -0.1262   52.1974 C.ar    1  ZINC000550782577    0.0300
      6 C6        -12.6581    1.2367   51.9049 C.ar    1  ZINC000550782577   -0.0600
      7 C7        -13.2008    1.6822   50.7127 C.ar    1  ZINC000550782577   -0.1200
      8 C8        -13.7596    0.7457   49.8476 C.ar    1  ZINC000550782577    0.1100
      9 O9        -14.3026    1.1393   48.6677 O.3     1  ZINC000550782577   -0.3000
     10 C10       -14.8915    0.1232   47.8535 C.3     1  ZINC000550782577    0.1000
     11 C11       -15.9553   -0.6239   48.6603 C.3     1  ZINC000550782577   -0.2000
     12 C12       -15.5403    0.7657   46.6258 C.3     1  ZINC000550782577   -0.1400
     13 C13       -13.8093   -0.8600   47.4027 C.3     1  ZINC000550782577   -0.2000
     14 C14       -13.7547   -0.6000   50.2068 C.ar    1  ZINC000550782577   -0.0100
     15 N15       -13.2262   -0.9907   51.3440 N.ar    1  ZINC000550782577   -0.4100
     16 C16       -12.3516   -1.4431   55.7478 C.3     1  ZINC000550782577    0.1400
     17 H17       -13.1533   -1.6852   56.4454 H       1  ZINC000550782577    0.1100
     18 C18       -11.5028   -2.6920   55.4829 C.3     1  ZINC000550782577   -0.1300
     19 C19       -11.1209   -3.3091   56.8269 C.3     1  ZINC000550782577   -0.0800
     20 C20       -10.5206   -2.2686   57.7357 C.ar    1  ZINC000550782577   -0.0800
     21 C21        -9.7825   -2.7105   58.8257 C.ar    1  ZINC000550782577   -0.1200
     22 C22        -9.2118   -1.8071   59.6986 C.ar    1  ZINC000550782577   -0.1200
     23 C23        -9.3762   -0.4510   59.4875 C.ar    1  ZINC000550782577   -0.1200
     24 C24       -10.1073   -0.0099   58.4037 C.ar    1  ZINC000550782577   -0.1200
     25 C25       -10.6795   -0.9175   57.5220 C.ar    1  ZINC000550782577   -0.0700
     26 C26       -11.4519   -0.3667   56.3519 C.3     1  ZINC000550782577   -0.0900
     27 H27       -14.7588   -1.7396   53.8411 H       1  ZINC000550782577    0.0600
     28 H28       -14.8370   -0.7546   55.3217 H       1  ZINC000550782577    0.0600
     29 H29       -14.6137    0.0316   53.7405 H       1  ZINC000550782577    0.1100
     30 H30       -12.2165    1.9355   52.5999 H       1  ZINC000550782577    0.1600
     31 H31       -13.1915    2.7320   50.4593 H       1  ZINC000550782577    0.1500
     32 H32       -16.8928   -0.0689   48.6271 H       1  ZINC000550782577    0.0700
     33 H33       -16.1048   -1.6157   48.2336 H       1  ZINC000550782577    0.0800
     34 H34       -15.6261   -0.7194   49.6951 H       1  ZINC000550782577    0.0800
     35 H35       -14.7824    1.2980   46.0510 H       1  ZINC000550782577    0.0700
     36 H36       -15.9895   -0.0094   46.0048 H       1  ZINC000550782577    0.0800
     37 H37       -16.3112    1.4662   46.9470 H       1  ZINC000550782577    0.0700
     38 H38       -13.3503   -1.3211   48.2772 H       1  ZINC000550782577    0.0800
     39 H39       -14.2578   -1.6324   46.7779 H       1  ZINC000550782577    0.0800
     40 H40       -13.0490   -0.3269   46.8319 H       1  ZINC000550782577    0.0700
     41 H41       -14.1867   -1.3315   49.5401 H       1  ZINC000550782577    0.1900
     42 H42       -12.0789   -3.4104   54.8996 H       1  ZINC000550782577    0.0700
     43 H43       -10.6012   -2.4141   54.9371 H       1  ZINC000550782577    0.0700
     44 H44       -12.0115   -3.7263   57.2969 H       1  ZINC000550782577    0.0800
     45 H45       -10.3949   -4.1056   56.6633 H       1  ZINC000550782577    0.0800
     46 H46        -9.6544   -3.7699   58.9918 H       1  ZINC000550782577    0.1200
     47 H47        -8.6388   -2.1583   60.5440 H       1  ZINC000550782577    0.1200
     48 H48        -8.9343    0.2609   60.1689 H       1  ZINC000550782577    0.1200
     49 H49       -10.2356    1.0498   58.2397 H       1  ZINC000550782577    0.1200
     50 H50       -10.7528   -0.0157   55.5928 H       1  ZINC000550782577    0.0800
     51 H51       -12.0660    0.4688   56.6878 H       1  ZINC000550782577    0.0800
@<TRIPOS>BOND
     1     1     2    1
     2     1    27    1
     3     1    28    1
     4     1    29    1
     5     2     3   am
     6     2    16    1
     7     3     4    2
     8     3     5    1
     9     5    15   ar
    10     5     6   ar
    11     6     7   ar
    12     6    30    1
    13     7     8   ar
    14     7    31    1
    15     8     9    1
    16     8    14   ar
    17     9    10    1
    18    10    11    1
    19    10    12    1
    20    10    13    1
    21    11    32    1
    22    11    33    1
    23    11    34    1
    24    12    35    1
    25    12    36    1
    26    12    37    1
    27    13    38    1
    28    13    39    1
    29    13    40    1
    30    14    15   ar
    31    14    41    1
    32    16    17    1
    33    16    26    1
    34    16    18    1
    35    18    19    1
    36    18    42    1
    37    18    43    1
    38    19    20    1
    39    19    44    1
    40    19    45    1
    41    20    25   ar
    42    20    21   ar
    43    21    22   ar
    44    21    46    1
    45    22    23   ar
    46    22    47    1
    47    23    24   ar
    48    23    48    1
    49    24    25   ar
    50    24    49    1
    51    25    26    1
    52    26    50    1
    53    26    51    1
@<TRIPOS>SUBSTRUCTURE
     1 ZINC000550782577        1 TEMP              0 ****  ****    0 ROOT


##########                                Name:    ZINC001179023006
##########                DOCK_Rotatable_Bonds:                   3
##########                         Heavy_Atoms:                  25
##########                    Molecular_Weight:             340.465
##########                DOCK_Rotatable_Bonds:                   3
##########                       Formal_Charge:          -0.0100005
##########                     HBond_Acceptors:                   4
##########                        HBond_Donors:                   1
##########                         Heavy_Atoms:                  25
##########                          Grid_Score:          -25.219845
##########                     Grid_vdw_energy:          -24.705282
##########                      Grid_es_energy:           -0.514562
##########           Internal_energy_repulsive:          138.286636

@<TRIPOS>MOLECULE
ZINC001179023006
 53 56 1 0 0
SMALL
USER_CHARGES


@<TRIPOS>ATOM
      1 C1         -9.4069   -2.0559   59.4185 C.3     1  ZINC001179023006   -0.1500
      2 C2         -9.9252   -1.4450   60.7219 C.3     1  ZINC001179023006   -0.1100
      3 C3        -11.0919   -0.5039   60.4154 C.3     1  ZINC001179023006   -0.1100
      4 C4        -12.2114   -1.1832   59.6696 C.2     1  ZINC001179023006    0.5400
      5 O5        -13.2132   -1.5265   60.2608 O.2     1  ZINC001179023006   -0.5400
      6 N6        -12.0996   -1.4091   58.3456 N.am    1  ZINC001179023006   -0.5900
      7 C7        -10.8953   -0.9938   57.6138 C.3     1  ZINC001179023006    0.1000
      8 C8        -11.3083   -0.1383   56.4184 C.3     1  ZINC001179023006   -0.1200
      9 C9        -12.3166   -0.9173   55.5613 C.3     1  ZINC001179023006   -0.0500
     10 C10       -13.5674   -1.1950   56.4083 C.3     1  ZINC001179023006   -0.1100
     11 C11       -13.1820   -2.0701   57.6041 C.3     1  ZINC001179023006    0.0900
     12 C12       -12.7093   -0.0688   54.3622 C.3     1  ZINC001179023006   -0.0800
     13 C13       -11.5138    0.3348   53.5547 C.ar    1  ZINC001179023006   -0.0700
     14 C14       -11.0886    1.6582   53.6122 C.ar    1  ZINC001179023006   -0.1100
     15 C15        -9.9533    2.0476   52.9292 C.ar    1  ZINC001179023006   -0.1100
     16 C16        -9.2374    1.1276   52.1864 C.ar    1  ZINC001179023006   -0.1200
     17 C17        -9.6707   -0.1847   52.1196 C.ar    1  ZINC001179023006   -0.1000
     18 C18       -10.8148   -0.5606   52.8008 C.ar    1  ZINC001179023006   -0.1100
     19 C19       -11.3073   -1.9823   52.7084 C.3     1  ZINC001179023006    0.1400
     20 N20       -11.2648   -2.6454   53.9928 N.am    1  ZINC001179023006   -0.7000
     21 C21       -11.7063   -2.2193   55.1482 C.2     1  ZINC001179023006    0.5200
     22 O22       -11.6014   -3.0259   56.0478 O.2     1  ZINC001179023006   -0.5500
     23 C23       -10.6577    0.8327   59.7909 C.3     1  ZINC001179023006   -0.1200
     24 C24       -11.7234    1.5014   60.6782 C.3     1  ZINC001179023006   -0.1400
     25 C25       -11.5659    0.3066   61.6334 C.3     1  ZINC001179023006   -0.1300
     26 H26        -8.6010   -2.7555   59.6403 H       1  ZINC001179023006    0.0600
     27 H27       -10.2181   -2.5833   58.9166 H       1  ZINC001179023006    0.0500
     28 H28        -9.0323   -1.2640   58.7697 H       1  ZINC001179023006    0.0600
     29 H29        -9.1241   -0.8853   61.2046 H       1  ZINC001179023006    0.0700
     30 H30       -10.2644   -2.2399   61.3861 H       1  ZINC001179023006    0.0700
     31 H31       -10.2503   -0.4119   58.2721 H       1  ZINC001179023006    0.0900
     32 H32       -10.3601   -1.8754   57.2609 H       1  ZINC001179023006    0.0800
     33 H33       -10.4296    0.1010   55.8195 H       1  ZINC001179023006    0.0800
     34 H34       -11.7685    0.7835   56.7743 H       1  ZINC001179023006    0.0800
     35 H35       -14.3100   -1.7136   55.8019 H       1  ZINC001179023006    0.0800
     36 H36       -13.9828   -0.2527   56.7655 H       1  ZINC001179023006    0.0800
     37 H37       -12.8411   -3.0430   57.2500 H       1  ZINC001179023006    0.1200
     38 H38       -14.0459   -2.1988   58.2561 H       1  ZINC001179023006    0.0800
     39 H39       -13.3892   -0.6399   53.7298 H       1  ZINC001179023006    0.0800
     40 H40       -13.2207    0.8276   54.7129 H       1  ZINC001179023006    0.0900
     41 H41       -11.6456    2.3802   54.1908 H       1  ZINC001179023006    0.1200
     42 H42        -9.6237    3.0750   52.9753 H       1  ZINC001179023006    0.1200
     43 H43        -8.3442    1.4317   51.6611 H       1  ZINC001179023006    0.1300
     44 H44        -9.1200   -0.9103   51.5395 H       1  ZINC001179023006    0.1300
     45 H45       -10.6816   -2.5306   52.0042 H       1  ZINC001179023006    0.0900
     46 H46       -12.3343   -1.9801   52.3430 H       1  ZINC001179023006    0.0800
     47 H47       -10.8535   -3.5239   53.9985 H       1  ZINC001179023006    0.4000
     48 H48        -9.6370    1.1208   60.0421 H       1  ZINC001179023006    0.0900
     49 H49       -10.8686    0.9050   58.7240 H       1  ZINC001179023006    0.0800
     50 H50       -12.7059    1.5595   60.2098 H       1  ZINC001179023006    0.0800
     51 H51       -11.4033    2.4500   61.1092 H       1  ZINC001179023006    0.0700
     52 H52       -12.5091   -0.0452   62.0517 H       1  ZINC001179023006    0.0700
     53 H53       -10.7940    0.4506   62.3894 H       1  ZINC001179023006    0.0900
@<TRIPOS>BOND
     1     1     2    1
     2     1    26    1
     3     1    27    1
     4     1    28    1
     5     2     3    1
     6     2    29    1
     7     2    30    1
     8     3    25    1
     9     3     4    1
    10     3    23    1
    11     4     5    2
    12     4     6   am
    13     6    11    1
    14     6     7    1
    15     7     8    1
    16     7    31    1
    17     7    32    1
    18     8     9    1
    19     8    33    1
    20     8    34    1
    21     9    21    1
    22     9    10    1
    23     9    12    1
    24    10    11    1
    25    10    35    1
    26    10    36    1
    27    11    37    1
    28    11    38    1
    29    12    13    1
    30    12    39    1
    31    12    40    1
    32    13    18   ar
    33    13    14   ar
    34    14    15   ar
    35    14    41    1
    36    15    16   ar
    37    15    42    1
    38    16    17   ar
    39    16    43    1
    40    17    18   ar
    41    17    44    1
    42    18    19    1
    43    19    20    1
    44    19    45    1
    45    19    46    1
    46    20    21   am
    47    20    47    1
    48    21    22    2
    49    23    24    1
    50    23    48    1
    51    23    49    1
    52    24    25    1
    53    24    50    1
    54    24    51    1
    55    25    52    1
    56    25    53    1
@<TRIPOS>SUBSTRUCTURE
     1 ZINC001179023006        1 TEMP              0 ****  ****    0 ROOT


##########                                Name:    ZINC000506388363
##########                DOCK_Rotatable_Bonds:                   5
##########                         Heavy_Atoms:                  29
##########                    Molecular_Weight:             416.858
##########                DOCK_Rotatable_Bonds:                   5
##########                       Formal_Charge:         7.07805e-07
##########                     HBond_Acceptors:                   8
##########                        HBond_Donors:                   1
##########                         Heavy_Atoms:                  29
##########                          Grid_Score:          -25.186932
##########                     Grid_vdw_energy:          -25.410925
##########                      Grid_es_energy:            0.223994
##########           Internal_energy_repulsive:           14.129720

@<TRIPOS>MOLECULE
ZINC000506388363
 48 51 1 0 0
SMALL
USER_CHARGES


@<TRIPOS>ATOM
      1 O1         -4.6207    1.1505   51.1407 O.2     1  ZINC000506388363   -0.5300
      2 C2         -5.2197    2.0642   51.6735 C.2     1  ZINC000506388363    0.5600
      3 C3         -4.4989    3.2970   52.0562 C.ar    1  ZINC000506388363   -0.1200
      4 C4         -4.8507    4.5206   51.4845 C.ar    1  ZINC000506388363   -0.0900
      5 C5         -4.1748    5.6680   51.8459 C.ar    1  ZINC000506388363   -0.1100
      6 C6         -3.1497    5.6078   52.7725 C.ar    1  ZINC000506388363   -0.0900
      7 C7         -2.7950    4.3972   53.3439 C.ar    1  ZINC000506388363   -0.0400
      8 Cl8        -1.5073    4.3320   54.5063 Cl      1  ZINC000506388363   -0.0600
      9 C9         -3.4674    3.2430   52.9950 C.ar    1  ZINC000506388363   -0.0600
     10 N10        -6.5421    1.9556   51.9105 N.am    1  ZINC000506388363   -0.6100
     11 C11        -7.2770    0.7356   51.5433 C.3     1  ZINC000506388363    0.1000
     12 C12        -8.0704    0.2591   52.7647 C.3     1  ZINC000506388363    0.0400
     13 N13        -8.9048    1.3609   53.2627 N.3     1  ZINC000506388363   -0.5300
     14 C14        -9.8082    0.8984   54.3248 C.3     1  ZINC000506388363    0.1200
     15 C15       -10.9114    0.0690   53.7199 C.2     1  ZINC000506388363   -0.2100
     16 C16       -11.2216   -0.0067   52.4073 C.2     1  ZINC000506388363    0.0600
     17 N17       -12.2659   -0.8522   52.2737 N.pl3   1  ZINC000506388363   -0.4700
     18 N18       -12.6161   -1.3174   53.5477 N.2     1  ZINC000506388363   -0.2700
     19 C19       -11.7988   -0.7699   54.4221 C.2     1  ZINC000506388363    0.1300
     20 C20       -11.8161   -0.9891   55.8897 C.ar    1  ZINC000506388363   -0.0700
     21 C21       -12.1476    0.0574   56.7505 C.ar    1  ZINC000506388363    0.1500
     22 F22       -12.4547    1.2742   56.2502 F       1  ZINC000506388363   -0.1200
     23 C23       -12.1617   -0.1536   58.1168 C.ar    1  ZINC000506388363   -0.1600
     24 C24       -11.8481   -1.3986   58.6306 C.ar    1  ZINC000506388363   -0.0500
     25 C25       -11.5186   -2.4402   57.7828 C.ar    1  ZINC000506388363   -0.1600
     26 C26       -11.5063   -2.2442   56.4142 C.ar    1  ZINC000506388363    0.1600
     27 F27       -11.1842   -3.2626   55.5871 F       1  ZINC000506388363   -0.1200
     28 C28        -8.0814    2.4862   53.7249 C.3     1  ZINC000506388363    0.0400
     29 C29        -7.2871    3.0514   52.5485 C.3     1  ZINC000506388363    0.1200
     30 H30        -5.6505    4.5692   50.7602 H       1  ZINC000506388363    0.1400
     31 H31        -4.4466    6.6151   51.4038 H       1  ZINC000506388363    0.1400
     32 H32        -2.6233    6.5087   53.0512 H       1  ZINC000506388363    0.1400
     33 H33        -3.1906    2.2993   53.4413 H       1  ZINC000506388363    0.1400
     34 H34        -7.9620    0.9535   50.7239 H       1  ZINC000506388363    0.0800
     35 H35        -6.5726   -0.0387   51.2394 H       1  ZINC000506388363    0.1000
     36 H36        -8.7065   -0.5792   52.4807 H       1  ZINC000506388363    0.0900
     37 H37        -7.3798   -0.0562   53.5467 H       1  ZINC000506388363    0.0400
     38 H38        -9.2495    0.2942   55.0394 H       1  ZINC000506388363    0.1000
     39 H39       -10.2393    1.7594   54.8356 H       1  ZINC000506388363    0.0400
     40 H40       -10.7222    0.5172   51.6057 H       1  ZINC000506388363    0.1800
     41 H41       -12.6988   -1.0950   51.4403 H       1  ZINC000506388363    0.4400
     42 H42       -12.4179    0.6559   58.7844 H       1  ZINC000506388363    0.1500
     43 H43       -11.8603   -1.5581   59.6987 H       1  ZINC000506388363    0.1500
     44 H44       -11.2743   -3.4100   58.1903 H       1  ZINC000506388363    0.1500
     45 H45        -8.7254    3.2628   54.1375 H       1  ZINC000506388363    0.0900
     46 H46        -7.3905    2.1397   54.4935 H       1  ZINC000506388363    0.0400
     47 H47        -6.5910    3.8095   52.9072 H       1  ZINC000506388363    0.1000
     48 H48        -7.9710    3.4922   51.8231 H       1  ZINC000506388363    0.0800
@<TRIPOS>BOND
     1     1     2    2
     2     2     3    1
     3     2    10   am
     4     3     9   ar
     5     3     4   ar
     6     4     5   ar
     7     4    30    1
     8     5     6   ar
     9     5    31    1
    10     6     7   ar
    11     6    32    1
    12     7     8    1
    13     7     9   ar
    14     9    33    1
    15    10    29    1
    16    10    11    1
    17    11    12    1
    18    11    34    1
    19    11    35    1
    20    12    13    1
    21    12    36    1
    22    12    37    1
    23    13    14    1
    24    13    28    1
    25    14    15    1
    26    14    38    1
    27    14    39    1
    28    15    19    1
    29    15    16    2
    30    16    17    1
    31    16    40    1
    32    17    18    1
    33    17    41    1
    34    18    19    2
    35    19    20    1
    36    20    26   ar
    37    20    21   ar
    38    21    22    1
    39    21    23   ar
    40    23    24   ar
    41    23    42    1
    42    24    25   ar
    43    24    43    1
    44    25    26   ar
    45    25    44    1
    46    26    27    1
    47    28    29    1
    48    28    45    1
    49    28    46    1
    50    29    47    1
    51    29    48    1
@<TRIPOS>SUBSTRUCTURE
     1 ZINC000506388363        1 TEMP              0 ****  ****    0 ROOT


##########                                Name:    ZINC000942661662
##########                DOCK_Rotatable_Bonds:                   6
##########                         Heavy_Atoms:                  25
##########                    Molecular_Weight:             343.426
##########                DOCK_Rotatable_Bonds:                   6
##########                       Formal_Charge:           0.0399997
##########                     HBond_Acceptors:                   6
##########                        HBond_Donors:                   1
##########                         Heavy_Atoms:                  25
##########                          Grid_Score:          -25.156118
##########                     Grid_vdw_energy:          -25.799099
##########                      Grid_es_energy:            0.642980
##########           Internal_energy_repulsive:          165.661179

@<TRIPOS>MOLECULE
ZINC000942661662
 50 52 1 0 0
SMALL
USER_CHARGES


@<TRIPOS>ATOM
      1 C1        -14.7996   -2.8361   57.1450 C.3     1  ZINC000942661662   -0.1700
      2 C2        -13.7435   -3.4988   56.2583 C.3     1  ZINC000942661662    0.1000
      3 N3        -12.6506   -2.5547   56.0119 N.am    1  ZINC000942661662   -0.6000
      4 C4        -12.8210   -1.5386   55.1431 C.2     1  ZINC000942661662    0.6000
      5 O5        -11.9138   -0.7548   54.9385 O.2     1  ZINC000942661662   -0.5200
      6 C6        -14.1066   -1.3772   54.4408 C.2     1  ZINC000942661662   -0.2400
      7 C7        -14.4357   -0.4124   53.5343 C.2     1  ZINC000942661662    0.0700
      8 C8        -13.5335    0.6991   53.0633 C.3     1  ZINC000942661662   -0.0900
      9 O9        -15.6940   -0.6204   53.1350 O.3     1  ZINC000942661662   -0.1700
     10 C10       -16.2190   -1.6943   53.7452 C.2     1  ZINC000942661662   -0.0300
     11 C11       -15.3004   -2.2261   54.5661 C.2     1  ZINC000942661662   -0.1900
     12 C12       -11.3727   -2.7151   56.7100 C.3     1  ZINC000942661662    0.1400
     13 H13       -10.5958   -3.0551   56.0253 H       1  ZINC000942661662    0.1100
     14 C14       -11.5147   -3.6826   57.9147 C.3     1  ZINC000942661662   -0.1400
     15 C15       -10.3925   -3.2168   58.8662 C.3     1  ZINC000942661662    0.1000
     16 N16       -10.0727   -1.8253   58.5157 N.am    1  ZINC000942661662   -0.6200
     17 C17        -9.1276   -1.0647   59.1030 C.2     1  ZINC000942661662    0.6100
     18 O18        -8.4525   -1.5227   60.0059 O.2     1  ZINC000942661662   -0.5200
     19 C19        -8.9128    0.3149   58.6538 C.2     1  ZINC000942661662   -0.0600
     20 C20        -9.4603    1.4491   59.2148 C.2     1  ZINC000942661662   -0.0700
     21 C21       -10.3885    1.5031   60.4007 C.3     1  ZINC000942661662   -0.0900
     22 C22        -8.9913    2.5401   58.4762 C.2     1  ZINC000942661662   -0.2100
     23 C23        -8.1837    2.0638   57.4987 C.2     1  ZINC000942661662    0.0500
     24 C24        -7.4643    2.8995   56.4715 C.3     1  ZINC000942661662   -0.0900
     25 N25        -8.1232    0.7135   57.5990 N.pl3   1  ZINC000942661662   -0.5400
     26 C26       -10.9557   -1.3998   57.4139 C.3     1  ZINC000942661662    0.0900
     27 H27       -15.6127   -3.5385   57.3284 H       1  ZINC000942661662    0.0700
     28 H28       -14.3479   -2.5475   58.0941 H       1  ZINC000942661662    0.0600
     29 H29       -15.1906   -1.9504   56.6444 H       1  ZINC000942661662    0.0600
     30 H30       -13.3525   -4.3846   56.7589 H       1  ZINC000942661662    0.0900
     31 H31       -14.1951   -3.7875   55.3092 H       1  ZINC000942661662    0.0800
     32 H32       -12.9751    0.3674   52.1878 H       1  ZINC000942661662    0.0900
     33 H33       -14.1354    1.5695   52.8020 H       1  ZINC000942661662    0.0900
     34 H34       -12.8376    0.9641   53.8592 H       1  ZINC000942661662    0.1000
     35 H35       -17.2193   -2.0729   53.5957 H       1  ZINC000942661662    0.2100
     36 H36       -15.4169   -3.0956   55.1961 H       1  ZINC000942661662    0.1600
     37 H37       -12.4911   -3.5710   58.3860 H       1  ZINC000942661662    0.1000
     38 H38       -11.3519   -4.7141   57.6021 H       1  ZINC000942661662    0.0900
     39 H39       -10.7369   -3.2692   59.8991 H       1  ZINC000942661662    0.0700
     40 H40        -9.5110   -3.8442   58.7350 H       1  ZINC000942661662    0.0700
     41 H41        -9.8037    1.5951   61.3159 H       1  ZINC000942661662    0.0700
     42 H42       -11.0509    2.3634   60.3047 H       1  ZINC000942661662    0.0600
     43 H43       -10.9822    0.5898   60.4392 H       1  ZINC000942661662    0.0800
     44 H44        -9.2310    3.5781   58.6535 H       1  ZINC000942661662    0.1400
     45 H45        -6.4827    3.1795   56.8537 H       1  ZINC000942661662    0.0800
     46 H46        -7.3460    2.3242   55.5532 H       1  ZINC000942661662    0.0700
     47 H47        -8.0438    3.7991   56.2644 H       1  ZINC000942661662    0.0900
     48 H48        -7.6131    0.1255   57.0204 H       1  ZINC000942661662    0.4100
     49 H49       -10.4150   -0.7532   56.7227 H       1  ZINC000942661662    0.0800
     50 H50       -11.8328   -0.8863   57.8075 H       1  ZINC000942661662    0.1000
@<TRIPOS>BOND
     1     1     2    1
     2     1    27    1
     3     1    28    1
     4     1    29    1
     5     2     3    1
     6     2    30    1
     7     2    31    1
     8     3     4   am
     9     3    12    1
    10     4     5    2
    11     4     6    1
    12     6    11    1
    13     6     7    2
    14     7     8    1
    15     7     9    1
    16     8    32    1
    17     8    33    1
    18     8    34    1
    19     9    10    1
    20    10    11    2
    21    10    35    1
    22    11    36    1
    23    12    13    1
    24    12    26    1
    25    12    14    1
    26    14    15    1
    27    14    37    1
    28    14    38    1
    29    15    16    1
    30    15    39    1
    31    15    40    1
    32    16    17   am
    33    16    26    1
    34    17    18    2
    35    17    19    1
    36    19    25    1
    37    19    20    2
    38    20    21    1
    39    20    22    1
    40    21    41    1
    41    21    42    1
    42    21    43    1
    43    22    23    2
    44    22    44    1
    45    23    24    1
    46    23    25    1
    47    24    45    1
    48    24    46    1
    49    24    47    1
    50    25    48    1
    51    26    49    1
    52    26    50    1
@<TRIPOS>SUBSTRUCTURE
     1 ZINC000942661662        1 TEMP              0 ****  ****    0 ROOT


##########                                Name:    ZINC000011498449
##########                DOCK_Rotatable_Bonds:                   5
##########                         Heavy_Atoms:                  21
##########                    Molecular_Weight:             331.198
##########                DOCK_Rotatable_Bonds:                   5
##########                       Formal_Charge:         1.30385e-07
##########                     HBond_Acceptors:                   7
##########                        HBond_Donors:                   1
##########                         Heavy_Atoms:                  21
##########                          Grid_Score:          -25.133173
##########                     Grid_vdw_energy:          -24.518070
##########                      Grid_es_energy:           -0.615103
##########           Internal_energy_repulsive:            9.398263

@<TRIPOS>MOLECULE
ZINC000011498449
 37 38 1 0 0
SMALL
USER_CHARGES


@<TRIPOS>ATOM
      1 C1        -12.8504    0.4072   55.4525 C.3     1  ZINC000011498449   -0.1500
      2 C2        -11.6360   -0.1403   54.6997 C.3     1  ZINC000011498449    0.0700
      3 H3        -10.8618   -0.4217   55.4135 H       1  ZINC000011498449    0.0600
      4 C4        -11.0927    0.9360   53.7529 C.3     1  ZINC000011498449    0.0800
      5 N5        -10.0504    0.3291   52.9098 N.am    1  ZINC000011498449   -0.6100
      6 C6         -8.8400    0.9071   52.7793 C.2     1  ZINC000011498449    0.5100
      7 O7         -8.5961    1.9420   53.3626 O.2     1  ZINC000011498449   -0.5300
      8 C8         -7.7895    0.2673   51.9086 C.3     1  ZINC000011498449    0.1000
      9 N9         -6.5302    1.0041   52.0413 N.am    1  ZINC000011498449   -0.7200
     10 C10        -6.1308    1.8381   51.0607 C.2     1  ZINC000011498449    0.5600
     11 O11        -6.8162    1.9800   50.0667 O.2     1  ZINC000011498449   -0.5100
     12 C12        -4.8603    2.5796   51.1937 C.ar    1  ZINC000011498449   -0.1300
     13 C13        -3.6605    1.9941   50.7846 C.ar    1  ZINC000011498449   -0.0600
     14 C14        -2.4779    2.6914   50.9108 C.ar    1  ZINC000011498449   -0.1100
     15 C15        -2.4772    3.9708   51.4423 C.ar    1  ZINC000011498449    0.0000
     16 Cl16       -0.9834    4.8415   51.5970 Cl      1  ZINC000011498449   -0.0400
     17 C17        -3.6629    4.5581   51.8502 C.ar    1  ZINC000011498449   -0.1100
     18 C18        -4.8547    3.8727   51.7243 C.ar    1  ZINC000011498449    0.0300
     19 Cl19       -6.3407    4.6099   52.2360 Cl      1  ZINC000011498449   -0.0100
     20 C20       -10.3688   -0.9278   52.2138 C.3     1  ZINC000011498449    0.0700
     21 C21       -10.9474   -1.9131   53.2356 C.3     1  ZINC000011498449    0.0500
     22 O22       -12.0232   -1.2866   53.9382 O.3     1  ZINC000011498449   -0.3700
     23 H23       -13.2373   -0.3591   56.1241 H       1  ZINC000011498449    0.0700
     24 H24       -12.5549    1.2822   56.0313 H       1  ZINC000011498449    0.0800
     25 H25       -13.6242    0.6885   54.7381 H       1  ZINC000011498449    0.0700
     26 H26       -11.8995    1.3134   53.1246 H       1  ZINC000011498449    0.0800
     27 H27       -10.6654    1.7538   54.3332 H       1  ZINC000011498449    0.1000
     28 H28        -7.6399   -0.7667   52.2198 H       1  ZINC000011498449    0.1000
     29 H29        -8.1159    0.2902   50.8689 H       1  ZINC000011498449    0.1000
     30 H30        -5.9838    0.8918   52.8349 H       1  ZINC000011498449    0.4100
     31 H31        -3.6590    0.9967   50.3704 H       1  ZINC000011498449    0.1500
     32 H32        -1.5495    2.2390   50.5949 H       1  ZINC000011498449    0.1500
     33 H33        -3.6559    5.5557   52.2638 H       1  ZINC000011498449    0.1500
     34 H34       -11.1027   -0.7380   51.4305 H       1  ZINC000011498449    0.0900
     35 H35        -9.4620   -1.3442   51.7749 H       1  ZINC000011498449    0.1000
     36 H36       -11.3171   -2.7986   52.7186 H       1  ZINC000011498449    0.1100
     37 H37       -10.1703   -2.2017   53.9435 H       1  ZINC000011498449    0.0600
@<TRIPOS>BOND
     1     1     2    1
     2     1    23    1
     3     1    24    1
     4     1    25    1
     5     2     3    1
     6     2    22    1
     7     2     4    1
     8     4     5    1
     9     4    26    1
    10     4    27    1
    11     5     6   am
    12     5    20    1
    13     6     7    2
    14     6     8    1
    15     8     9    1
    16     8    28    1
    17     8    29    1
    18     9    10   am
    19     9    30    1
    20    10    11    2
    21    10    12    1
    22    12    18   ar
    23    12    13   ar
    24    13    14   ar
    25    13    31    1
    26    14    15   ar
    27    14    32    1
    28    15    16    1
    29    15    17   ar
    30    17    18   ar
    31    17    33    1
    32    18    19    1
    33    20    21    1
    34    20    34    1
    35    20    35    1
    36    21    22    1
    37    21    36    1
    38    21    37    1
@<TRIPOS>SUBSTRUCTURE
     1 ZINC000011498449        1 TEMP              0 ****  ****    0 ROOT


##########                                Name:    ZINC000364058410
##########                DOCK_Rotatable_Bonds:                   5
##########                         Heavy_Atoms:                  25
##########                    Molecular_Weight:             358.464
##########                DOCK_Rotatable_Bonds:                   5
##########                       Formal_Charge:           0.0100002
##########                     HBond_Acceptors:                   7
##########                        HBond_Donors:                   0
##########                         Heavy_Atoms:                  25
##########                          Grid_Score:          -25.026150
##########                     Grid_vdw_energy:          -23.231586
##########                      Grid_es_energy:           -1.794564
##########           Internal_energy_repulsive:           61.566780

@<TRIPOS>MOLECULE
ZINC000364058410
 47 50 1 0 0
SMALL
USER_CHARGES


@<TRIPOS>ATOM
      1 C1         -8.5321    3.7974   57.7673 C.3     1  ZINC000364058410   -0.0700
      2 C2         -8.6237    2.3600   58.2109 C.2     1  ZINC000364058410   -0.2500
      3 C3         -9.1878    1.9153   59.3576 C.2     1  ZINC000364058410    0.0800
      4 N4         -9.0661    0.5715   59.3817 N.pl3   1  ZINC000364058410   -0.3600
      5 C5         -9.5415   -0.3181   60.4441 C.3     1  ZINC000364058410    0.1300
      6 C6        -10.9579    0.0170   60.9456 C.3     1  ZINC000364058410    0.1100
      7 N7        -11.4371   -0.9224   59.9131 N.am    1  ZINC000364058410   -0.6500
      8 C8        -12.5910   -1.0697   59.2325 C.2     1  ZINC000364058410    0.5600
      9 O9        -13.5150   -0.3105   59.4342 O.2     1  ZINC000364058410   -0.5000
     10 C10       -12.7330   -2.1775   58.2209 C.3     1  ZINC000364058410    0.1400
     11 H11       -11.9739   -2.9383   58.4031 H       1  ZINC000364058410    0.0900
     12 C12       -14.1261   -2.8041   58.3375 C.3     1  ZINC000364058410   -0.1200
     13 C13       -14.3143   -3.8316   57.2191 C.3     1  ZINC000364058410   -0.1200
     14 C14       -14.2104   -3.1343   55.8607 C.3     1  ZINC000364058410   -0.1400
     15 C15       -12.8182   -2.5116   55.7160 C.3     1  ZINC000364058410    0.1000
     16 N16       -12.5685   -1.6321   56.8666 N.am    1  ZINC000364058410   -0.6000
     17 C17       -12.2007   -0.3486   56.6827 C.2     1  ZINC000364058410    0.5900
     18 O18       -11.9969    0.3696   57.6439 O.2     1  ZINC000364058410   -0.4900
     19 C19       -12.0463    0.1824   55.3252 C.2     1  ZINC000364058410   -0.2600
     20 C20       -10.9567   -0.0017   54.5213 C.2     1  ZINC000364058410   -0.0600
     21 C21       -11.0770    0.6077   53.2949 C.2     1  ZINC000364058410   -0.1400
     22 C22       -12.2242    1.2682   53.0992 C.2     1  ZINC000364058410   -0.2400
     23 S23       -13.2365    1.1516   54.4676 S.3     1  ZINC000364058410    0.2100
     24 C24       -10.1452   -1.6358   59.9254 C.3     1  ZINC000364058410    0.0900
     25 N25        -8.4054    0.1774   58.2110 N.2     1  ZINC000364058410   -0.3000
     26 C26        -8.1461    1.2496   57.5073 C.2     1  ZINC000364058410    0.0500
     27 H27        -9.4165    4.0550   57.1847 H       1  ZINC000364058410    0.0600
     28 H28        -8.4722    4.4446   58.6423 H       1  ZINC000364058410    0.0600
     29 H29        -7.6411    3.9322   57.1539 H       1  ZINC000364058410    0.0600
     30 H30        -9.6522    2.5263   60.1175 H       1  ZINC000364058410    0.1700
     31 H31        -8.8121   -0.4539   61.2426 H       1  ZINC000364058410    0.1300
     32 H32       -11.1527   -0.3145   61.9655 H       1  ZINC000364058410    0.1100
     33 H33       -11.2531    1.0514   60.7694 H       1  ZINC000364058410    0.0900
     34 H34       -14.2235   -3.2971   59.3047 H       1  ZINC000364058410    0.0800
     35 H35       -14.8837   -2.0256   58.2476 H       1  ZINC000364058410    0.0800
     36 H36       -13.5413   -4.5963   57.2947 H       1  ZINC000364058410    0.0700
     37 H37       -15.2955   -4.2966   57.3145 H       1  ZINC000364058410    0.0800
     38 H38       -14.3677   -3.8624   55.0650 H       1  ZINC000364058410    0.0800
     39 H39       -14.9672   -2.3527   55.7941 H       1  ZINC000364058410    0.0700
     40 H40       -12.0661   -3.3000   55.6915 H       1  ZINC000364058410    0.0800
     41 H41       -12.7718   -1.9306   54.7949 H       1  ZINC000364058410    0.0900
     42 H42       -10.0876   -0.5690   54.8198 H       1  ZINC000364058410    0.1500
     43 H43       -10.3019    0.5573   52.5443 H       1  ZINC000364058410    0.1500
     44 H44       -12.4772    1.8006   52.1941 H       1  ZINC000364058410    0.1700
     45 H45        -9.7915   -1.9210   58.9346 H       1  ZINC000364058410    0.0900
     46 H46       -10.1013   -2.4528   60.6456 H       1  ZINC000364058410    0.1100
     47 H47        -7.6433    1.2737   56.5518 H       1  ZINC000364058410    0.1800
@<TRIPOS>BOND
     1     1     2    1
     2     1    27    1
     3     1    28    1
     4     1    29    1
     5     2    26    1
     6     2     3    2
     7     3     4    1
     8     3    30    1
     9     4     5    1
    10     4    25    1
    11     5    24    1
    12     5     6    1
    13     5    31    1
    14     6     7    1
    15     6    32    1
    16     6    33    1
    17     7     8   am
    18     7    24    1
    19     8     9    2
    20     8    10    1
    21    10    11    1
    22    10    16    1
    23    10    12    1
    24    12    13    1
    25    12    34    1
    26    12    35    1
    27    13    14    1
    28    13    36    1
    29    13    37    1
    30    14    15    1
    31    14    38    1
    32    14    39    1
    33    15    16    1
    34    15    40    1
    35    15    41    1
    36    16    17   am
    37    17    18    2
    38    17    19    1
    39    19    23    1
    40    19    20    2
    41    20    21    1
    42    20    42    1
    43    21    22    2
    44    21    43    1
    45    22    23    1
    46    22    44    1
    47    24    45    1
    48    24    46    1
    49    25    26    2
    50    26    47    1
@<TRIPOS>SUBSTRUCTURE
     1 ZINC000364058410        1 TEMP              0 ****  ****    0 ROOT


##########                                Name:    ZINC000426607143
##########                DOCK_Rotatable_Bonds:                   3
##########                         Heavy_Atoms:                  25
##########                    Molecular_Weight:             419.302
##########                DOCK_Rotatable_Bonds:                   3
##########                       Formal_Charge:         1.49012e-07
##########                     HBond_Acceptors:                   7
##########                        HBond_Donors:                   0
##########                         Heavy_Atoms:                  25
##########                          Grid_Score:          -25.007627
##########                     Grid_vdw_energy:          -24.595163
##########                      Grid_es_energy:           -0.412464
##########           Internal_energy_repulsive:           11.448366

@<TRIPOS>MOLECULE
ZINC000426607143
 40 43 1 0 0
SMALL
USER_CHARGES


@<TRIPOS>ATOM
      1 C1         -8.6894   -0.4639   63.6342 C.3     1  ZINC000426607143   -0.0900
      2 C2         -9.2537    0.4473   64.6937 C.2     1  ZINC000426607143    0.1600
      3 N3         -8.7694    0.4718   65.8975 N.2     1  ZINC000426607143   -0.4600
      4 S4         -9.6608    1.6101   66.7828 S.3     1  ZINC000426607143    0.2900
      5 C5        -10.7072    2.0574   65.4926 C.2     1  ZINC000426607143   -0.1300
      6 C6        -11.8205    3.0724   65.5310 C.3     1  ZINC000426607143   -0.0800
      7 C7        -10.3129    1.3046   64.4266 C.2     1  ZINC000426607143   -0.1200
      8 C8        -10.9659    1.3872   63.0976 C.2     1  ZINC000426607143    0.2500
      9 N9        -12.2428    1.2473   62.8494 N.2     1  ZINC000426607143   -0.3700
     10 O10       -12.4523    1.3719   61.6613 O.3     1  ZINC000426607143    0.0900
     11 C11       -11.3059    1.6091   61.0163 C.2     1  ZINC000426607143    0.2000
     12 C12       -11.1405    1.8220   59.5336 C.3     1  ZINC000426607143   -0.0300
     13 H13       -11.6062    2.7593   59.2295 H       1  ZINC000426607143    0.1600
     14 C14        -9.6428    1.8120   59.1492 C.3     1  ZINC000426607143   -0.1200
     15 C15        -9.6750    1.1065   57.7752 C.3     1  ZINC000426607143    0.1000
     16 N16       -10.8859    0.2773   57.7891 N.am    1  ZINC000426607143   -0.5800
     17 C17       -11.1312   -0.7771   56.9020 C.ar    1  ZINC000426607143    0.1700
     18 C18       -11.4566   -0.5117   55.5790 C.ar    1  ZINC000426607143   -0.1000
     19 C19       -11.6982   -1.5547   54.7057 C.ar    1  ZINC000426607143   -0.1000
     20 C20       -11.6167   -2.8621   55.1480 C.ar    1  ZINC000426607143   -0.1000
     21 C21       -11.2927   -3.1306   56.4654 C.ar    1  ZINC000426607143   -0.0900
     22 C22       -11.0439   -2.0924   57.3424 C.ar    1  ZINC000426607143   -0.0800
     23 Br23      -10.6010   -2.4602   59.1437 Br      1  ZINC000426607143   -0.0400
     24 C24       -11.7322    0.6622   58.7631 C.2     1  ZINC000426607143    0.5300
     25 O25       -12.8083    0.1510   58.9906 O.2     1  ZINC000426607143   -0.4900
     26 N26       -10.3538    1.6270   61.9156 N.2     1  ZINC000426607143   -0.4600
     27 H27        -7.8894    0.0501   63.1014 H       1  ZINC000426607143    0.0900
     28 H28        -8.2932   -1.3647   64.1031 H       1  ZINC000426607143    0.0800
     29 H29        -9.4773   -0.7362   62.9320 H       1  ZINC000426607143    0.1100
     30 H30       -11.8813    3.5075   66.5285 H       1  ZINC000426607143    0.0800
     31 H31       -11.6205    3.8587   64.8032 H       1  ZINC000426607143    0.0900
     32 H32       -12.7649    2.5849   65.2890 H       1  ZINC000426607143    0.0900
     33 H33        -9.2569    2.8272   59.0575 H       1  ZINC000426607143    0.1100
     34 H34        -9.0592    1.2378   59.8688 H       1  ZINC000426607143    0.1000
     35 H35        -9.7318    1.8435   56.9741 H       1  ZINC000426607143    0.0900
     36 H36        -8.7909    0.4811   57.6515 H       1  ZINC000426607143    0.0900
     37 H37       -11.5213    0.5091   55.2325 H       1  ZINC000426607143    0.1400
     38 H38       -11.9514   -1.3485   53.6763 H       1  ZINC000426607143    0.1400
     39 H39       -11.8067   -3.6753   54.4633 H       1  ZINC000426607143    0.1400
     40 H40       -11.2298   -4.1530   56.8079 H       1  ZINC000426607143    0.1400
@<TRIPOS>BOND
     1     1     2    1
     2     1    27    1
     3     1    28    1
     4     1    29    1
     5     2     7    1
     6     2     3    2
     7     3     4    1
     8     4     5    1
     9     5     6    1
    10     5     7    2
    11     6    30    1
    12     6    31    1
    13     6    32    1
    14     7     8    1
    15     8    26    1
    16     8     9    2
    17     9    10    1
    18    10    11    1
    19    11    12    1
    20    11    26    2
    21    12    13    1
    22    12    24    1
    23    12    14    1
    24    14    15    1
    25    14    33    1
    26    14    34    1
    27    15    16    1
    28    15    35    1
    29    15    36    1
    30    16    17    1
    31    16    24   am
    32    17    22   ar
    33    17    18   ar
    34    18    19   ar
    35    18    37    1
    36    19    20   ar
    37    19    38    1
    38    20    21   ar
    39    20    39    1
    40    21    22   ar
    41    21    40    1
    42    22    23    1
    43    24    25    2
@<TRIPOS>SUBSTRUCTURE
     1 ZINC000426607143        1 TEMP              0 ****  ****    0 ROOT


##########                                Name:    ZINC001173835973
##########                DOCK_Rotatable_Bonds:                   4
##########                         Heavy_Atoms:                  26
##########                    Molecular_Weight:             343.388
##########                DOCK_Rotatable_Bonds:                   4
##########                       Formal_Charge:           -0.010001
##########                     HBond_Acceptors:                   6
##########                        HBond_Donors:                   4
##########                         Heavy_Atoms:                  26
##########                          Grid_Score:          -24.834099
##########                     Grid_vdw_energy:          -22.884668
##########                      Grid_es_energy:           -1.949430
##########           Internal_energy_repulsive:            6.505580

@<TRIPOS>MOLECULE
ZINC001173835973
 43 46 1 0 0
SMALL
USER_CHARGES


@<TRIPOS>ATOM
      1 C1         -2.2791    1.9796   58.3471 C.3     1  ZINC001173835973   -0.1700
      2 C2         -1.0401    2.6843   57.8578 C.2     1  ZINC001173835973    0.5100
      3 O3         -1.0818    3.8656   57.5859 O.2     1  ZINC001173835973   -0.5200
      4 N4          0.1142    2.0020   57.7223 N.am    1  ZINC001173835973   -0.6800
      5 C5          1.2646    2.6563   57.2680 C.ar    1  ZINC001173835973    0.1800
      6 C6          2.3602    2.8011   58.1095 C.ar    1  ZINC001173835973   -0.1900
      7 C7          3.4970    3.4472   57.6619 C.ar    1  ZINC001173835973   -0.0600
      8 C8          3.5483    3.9505   56.3767 C.ar    1  ZINC001173835973   -0.1900
      9 C9          2.4553    3.8089   55.5293 C.ar    1  ZINC001173835973    0.2200
     10 N10         2.5075    4.3180   54.2302 N.pl3   1  ZINC001173835973   -0.6900
     11 C11         1.6393    3.8240   53.2496 C.ar    1  ZINC001173835973    0.0400
     12 C12         0.4872    4.4960   52.9651 C.ar    1  ZINC001173835973    0.2400
     13 N13         0.1819    5.6742   53.6560 N.pl3   1  ZINC001173835973   -0.8600
     14 C14        -0.4292    3.9963   51.9459 C.ar    1  ZINC001173835973   -0.1100
     15 C15        -1.6169    4.6842   51.6482 C.ar    1  ZINC001173835973   -0.0600
     16 C16        -2.4391    4.1698   50.6826 C.ar    1  ZINC001173835973   -0.1700
     17 C17        -2.0860    2.9958   50.0279 C.ar    1  ZINC001173835973    0.1200
     18 N18        -0.9732    2.3583   50.3122 N.ar    1  ZINC001173835973   -0.4400
     19 C19        -0.1329    2.8087   51.2412 C.ar    1  ZINC001173835973    0.1900
     20 C20         1.1069    2.0855   51.5473 C.ar    1  ZINC001173835973    0.1300
     21 N21         1.4182    0.9632   50.9028 N.ar    1  ZINC001173835973   -0.4400
     22 C22         2.5245    0.3059   51.1665 C.ar    1  ZINC001173835973    0.1000
     23 C23         3.4220    0.7500   52.1300 C.ar    1  ZINC001173835973   -0.1500
     24 C24         3.1588    1.8980   52.8276 C.ar    1  ZINC001173835973   -0.0700
     25 C25         1.9768    2.5974   52.5353 C.ar    1  ZINC001173835973   -0.0400
     26 C26         1.3141    3.1560   55.9745 C.ar    1  ZINC001173835973   -0.1900
     27 H27        -3.1063    2.6880   58.3917 H       1  ZINC001173835973    0.1000
     28 H28        -2.5307    1.1697   57.6625 H       1  ZINC001173835973    0.0900
     29 H29        -2.0962    1.5715   59.3411 H       1  ZINC001173835973    0.0900
     30 H30         0.1476    1.0573   57.9399 H       1  ZINC001173835973    0.4100
     31 H31         2.3236    2.4088   59.1151 H       1  ZINC001173835973    0.1200
     32 H32         4.3471    3.5590   58.3186 H       1  ZINC001173835973    0.1200
     33 H33         4.4380    4.4548   56.0300 H       1  ZINC001173835973    0.1200
     34 H34         3.1452    5.0140   54.0072 H       1  ZINC001173835973    0.4000
     35 H35         0.8247    6.0537   54.2753 H       1  ZINC001173835973    0.4100
     36 H36        -0.6725    6.1113   53.5153 H       1  ZINC001173835973    0.4000
     37 H37        -1.8747    5.5952   52.1680 H       1  ZINC001173835973    0.1400
     38 H38        -3.3600    4.6745   50.4303 H       1  ZINC001173835973    0.1400
     39 H39        -2.7420    2.5981   49.2677 H       1  ZINC001173835973    0.1700
     40 H40         2.7414   -0.6013   50.6220 H       1  ZINC001173835973    0.1600
     41 H41         4.3244    0.1909   52.3282 H       1  ZINC001173835973    0.1400
     42 H42         3.8443    2.2584   53.5803 H       1  ZINC001173835973    0.1400
     43 H43         0.4637    3.0443   55.3183 H       1  ZINC001173835973    0.1400
@<TRIPOS>BOND
     1     1     2    1
     2     1    27    1
     3     1    28    1
     4     1    29    1
     5     2     3    2
     6     2     4   am
     7     4     5    1
     8     4    30    1
     9     5    26   ar
    10     5     6   ar
    11     6     7   ar
    12     6    31    1
    13     7     8   ar
    14     7    32    1
    15     8     9   ar
    16     8    33    1
    17     9    10    1
    18     9    26   ar
    19    10    11    1
    20    10    34    1
    21    11    25   ar
    22    11    12   ar
    23    12    13    1
    24    12    14   ar
    25    13    35    1
    26    13    36    1
    27    14    19   ar
    28    14    15   ar
    29    15    16   ar
    30    15    37    1
    31    16    17   ar
    32    16    38    1
    33    17    18   ar
    34    17    39    1
    35    18    19   ar
    36    19    20   ar
    37    20    25   ar
    38    20    21   ar
    39    21    22   ar
    40    22    23   ar
    41    22    40    1
    42    23    24   ar
    43    23    41    1
    44    24    25   ar
    45    24    42    1
    46    26    43    1
@<TRIPOS>SUBSTRUCTURE
     1 ZINC001173835973        1 TEMP              0 ****  ****    0 ROOT


##########                                Name:    ZINC000326056918
##########                DOCK_Rotatable_Bonds:                   6
##########                         Heavy_Atoms:                  24
##########                    Molecular_Weight:             408.326
##########                DOCK_Rotatable_Bonds:                   6
##########                       Formal_Charge:         -0.00999978
##########                     HBond_Acceptors:                   9
##########                        HBond_Donors:                   0
##########                         Heavy_Atoms:                  24
##########                          Grid_Score:          -24.769545
##########                     Grid_vdw_energy:          -24.208084
##########                      Grid_es_energy:           -0.561460
##########           Internal_energy_repulsive:           32.058918

@<TRIPOS>MOLECULE
ZINC000326056918
 39 40 1 0 0
SMALL
USER_CHARGES


@<TRIPOS>ATOM
      1 C1         -4.8265    3.7627   55.7507 C.3     1  ZINC000326056918    0.0400
      2 O2         -4.8375    4.8280   54.7643 O.3     1  ZINC000326056918   -0.3500
      3 C3         -5.9116    4.8984   53.9510 C.2     1  ZINC000326056918    0.5000
      4 O4         -6.2043    5.9528   53.4201 O.2     1  ZINC000326056918   -0.4300
      5 C5         -6.7248    3.7058   53.7076 C.2     1  ZINC000326056918   -0.1600
      6 C6         -6.7373    2.9765   52.5509 C.2     1  ZINC000326056918   -0.6200
      7 S7         -5.7515    3.3727   51.1451 S.o2    1  ZINC000326056918    2.6900
      8 O8         -5.6728    2.1886   50.3636 O.2     1  ZINC000326056918   -0.9100
      9 O9         -6.2483    4.6049   50.6411 O.2     1  ZINC000326056918   -0.9400
     10 N10        -4.2178    3.6752   51.6915 N.am    1  ZINC000326056918   -0.9900
     11 C11        -3.6028    4.9846   51.4604 C.3     1  ZINC000326056918    0.0900
     12 C12        -3.4758    2.6333   52.4058 C.3     1  ZINC000326056918    0.1500
     13 C13        -1.9965    2.8829   52.2635 C.ar    1  ZINC000326056918   -0.0900
     14 C14        -1.2949    3.4819   53.2925 C.ar    1  ZINC000326056918   -0.0800
     15 C15         0.0621    3.7116   53.1627 C.ar    1  ZINC000326056918   -0.1100
     16 C16         0.7186    3.3417   52.0026 C.ar    1  ZINC000326056918   -0.0200
     17 Cl17        2.4228    3.6297   51.8398 Cl      1  ZINC000326056918   -0.0600
     18 C18         0.0168    2.7416   50.9723 C.ar    1  ZINC000326056918   -0.1100
     19 C19        -1.3398    2.5073   51.1049 C.ar    1  ZINC000326056918   -0.0300
     20 Cl20       -2.2211    1.7539   49.8128 Cl      1  ZINC000326056918   -0.0100
     21 C21        -7.5946    1.9034   52.5943 C.2     1  ZINC000326056918   -0.0400
     22 C22        -7.7696    0.9609   51.4315 C.3     1  ZINC000326056918   -0.1100
     23 C23        -8.2624    1.7562   53.7450 C.2     1  ZINC000326056918   -0.2600
     24 S24        -7.8365    2.9768   54.8584 S.3     1  ZINC000326056918    0.3100
     25 H25        -3.9095    3.8201   56.3373 H       1  ZINC000326056918    0.1100
     26 H26        -5.6872    3.8697   56.4109 H       1  ZINC000326056918    0.0700
     27 H27        -4.8743    2.7984   55.2447 H       1  ZINC000326056918    0.0700
     28 H28        -3.9081    5.6735   52.2481 H       1  ZINC000326056918    0.0600
     29 H29        -2.5177    4.8828   51.4673 H       1  ZINC000326056918    0.0700
     30 H30        -3.9253    5.3721   50.4939 H       1  ZINC000326056918    0.0900
     31 H31        -3.7476    2.6525   53.4612 H       1  ZINC000326056918    0.1100
     32 H32        -3.7220    1.6585   51.9849 H       1  ZINC000326056918    0.0900
     33 H33        -1.8070    3.7709   54.1985 H       1  ZINC000326056918    0.1400
     34 H34         0.6098    4.1804   53.9669 H       1  ZINC000326056918    0.1400
     35 H35         0.5290    2.4525   50.0663 H       1  ZINC000326056918    0.1500
     36 H36        -6.9799    0.2098   51.4506 H       1  ZINC000326056918    0.0900
     37 H37        -8.7400    0.4698   51.5048 H       1  ZINC000326056918    0.0700
     38 H38        -7.7155    1.5214   50.4982 H       1  ZINC000326056918    0.0900
     39 H39        -8.9731    0.9676   53.9434 H       1  ZINC000326056918    0.1800
@<TRIPOS>BOND
     1     1     2    1
     2     1    25    1
     3     1    26    1
     4     1    27    1
     5     2     3    1
     6     3     4    2
     7     3     5    1
     8     5    24    1
     9     5     6    2
    10     6     7    1
    11     6    21    1
    12     7     8    2
    13     7     9    2
    14     7    10   am
    15    10    11    1
    16    10    12    1
    17    11    28    1
    18    11    29    1
    19    11    30    1
    20    12    13    1
    21    12    31    1
    22    12    32    1
    23    13    19   ar
    24    13    14   ar
    25    14    15   ar
    26    14    33    1
    27    15    16   ar
    28    15    34    1
    29    16    17    1
    30    16    18   ar
    31    18    19   ar
    32    18    35    1
    33    19    20    1
    34    21    22    1
    35    21    23    2
    36    22    36    1
    37    22    37    1
    38    22    38    1
    39    23    24    1
    40    23    39    1
@<TRIPOS>SUBSTRUCTURE
     1 ZINC000326056918        1 TEMP              0 ****  ****    0 ROOT


##########                                Name:    ZINC000077537368
##########                DOCK_Rotatable_Bonds:                   5
##########                         Heavy_Atoms:                  27
##########                    Molecular_Weight:             365.478
##########                DOCK_Rotatable_Bonds:                   5
##########                       Formal_Charge:          -0.0400007
##########                     HBond_Acceptors:                   6
##########                        HBond_Donors:                   0
##########                         Heavy_Atoms:                  27
##########                          Grid_Score:          -24.588518
##########                     Grid_vdw_energy:          -23.877176
##########                      Grid_es_energy:           -0.711342
##########           Internal_energy_repulsive:           12.514531

@<TRIPOS>MOLECULE
ZINC000077537368
 54 56 1 0 0
SMALL
USER_CHARGES


@<TRIPOS>ATOM
      1 C1         -5.1626    5.3087   55.6699 C.3     1  ZINC000077537368    0.0800
      2 N2         -5.6388    4.6976   54.4266 N.pl3   1  ZINC000077537368   -0.2600
      3 N3         -4.8875    4.2770   53.4734 N.2     1  ZINC000077537368   -0.2700
      4 C4         -5.6045    3.7822   52.4968 C.2     1  ZINC000077537368    0.0400
      5 C5         -5.0727    3.1955   51.2147 C.3     1  ZINC000077537368    0.0200
      6 C6         -4.5771    1.7711   51.4726 C.3     1  ZINC000077537368   -0.1400
      7 C7         -6.1870    3.1657   50.1666 C.3     1  ZINC000077537368   -0.1400
      8 C8         -3.9141    4.0538   50.7029 C.3     1  ZINC000077537368   -0.1400
      9 C9         -6.9501    3.8940   52.8540 C.2     1  ZINC000077537368   -0.2000
     10 C10        -6.9493    4.4826   54.1067 C.2     1  ZINC000077537368   -0.0400
     11 C11        -8.1249    4.8180   54.9258 C.2     1  ZINC000077537368    0.5900
     12 O12        -8.5701    5.9499   54.9160 O.2     1  ZINC000077537368   -0.5400
     13 N13        -8.7083    3.8710   55.6870 N.am    1  ZINC000077537368   -0.6000
     14 C14        -8.1824    2.4978   55.7182 C.3     1  ZINC000077537368    0.0800
     15 C15        -7.9866    2.0847   57.1808 C.3     1  ZINC000077537368    0.0400
     16 N16        -9.2428    2.2857   57.9155 N.3     1  ZINC000077537368   -0.5300
     17 C17        -9.1490    1.7421   59.2770 C.3     1  ZINC000077537368    0.0900
     18 C18       -10.2877    0.7840   59.5148 C.ar    1  ZINC000077537368   -0.0500
     19 C19       -11.5416    1.0634   59.0007 C.ar    1  ZINC000077537368   -0.1200
     20 C20       -12.5884    0.1909   59.2150 C.ar    1  ZINC000077537368   -0.0700
     21 C21       -12.3803   -0.9765   59.9523 C.ar    1  ZINC000077537368   -0.0300
     22 C22       -13.4622   -1.8869   60.1782 C.1     1  ZINC000077537368    0.2500
     23 N23       -14.3206   -2.6092   60.3575 N.1     1  ZINC000077537368   -0.4100
     24 C24       -11.1122   -1.2523   60.4678 C.ar    1  ZINC000077537368   -0.0700
     25 C25       -10.0731   -0.3738   60.2414 C.ar    1  ZINC000077537368   -0.1000
     26 C26        -9.6247    3.7039   57.9399 C.3     1  ZINC000077537368    0.0400
     27 C27        -9.8840    4.1849   56.5131 C.3     1  ZINC000077537368    0.1200
     28 H28        -5.0965    4.5472   56.4470 H       1  ZINC000077537368    0.0800
     29 H29        -4.1780    5.7465   55.5056 H       1  ZINC000077537368    0.1000
     30 H30        -5.8588    6.0870   55.9821 H       1  ZINC000077537368    0.1100
     31 H31        -5.4025    1.1597   51.8373 H       1  ZINC000077537368    0.0600
     32 H32        -4.1925    1.3467   50.5452 H       1  ZINC000077537368    0.0600
     33 H33        -3.7832    1.7923   52.2192 H       1  ZINC000077537368    0.0600
     34 H34        -6.5401    4.1805   49.9829 H       1  ZINC000077537368    0.0600
     35 H35        -5.8024    2.7414   49.2392 H       1  ZINC000077537368    0.0600
     36 H36        -7.0125    2.5543   50.5313 H       1  ZINC000077537368    0.0600
     37 H37        -3.1202    4.0749   51.4495 H       1  ZINC000077537368    0.0600
     38 H38        -3.5295    3.6293   49.7755 H       1  ZINC000077537368    0.0600
     39 H39        -4.2672    5.0685   50.5191 H       1  ZINC000077537368    0.0600
     40 H40        -7.8087    3.5836   52.2771 H       1  ZINC000077537368    0.1700
     41 H41        -8.8918    1.8231   55.2390 H       1  ZINC000077537368    0.0800
     42 H42        -7.2265    2.4599   55.1959 H       1  ZINC000077537368    0.1200
     43 H43        -7.7025    1.0334   57.2269 H       1  ZINC000077537368    0.0900
     44 H44        -7.2017    2.6940   57.6289 H       1  ZINC000077537368    0.0400
     45 H45        -8.2015    1.2164   59.3939 H       1  ZINC000077537368    0.0900
     46 H46        -9.2037    2.5575   59.9982 H       1  ZINC000077537368    0.0500
     47 H47       -11.7012    1.9667   58.4307 H       1  ZINC000077537368    0.1300
     48 H48       -13.5668    0.4105   58.8138 H       1  ZINC000077537368    0.1300
     49 H49       -10.9445   -2.1535   61.0388 H       1  ZINC000077537368    0.1300
     50 H50        -9.0918   -0.5860   60.6392 H       1  ZINC000077537368    0.1400
     51 H51       -10.5286    3.8269   58.5365 H       1  ZINC000077537368    0.1000
     52 H52        -8.8171    4.2906   58.3774 H       1  ZINC000077537368    0.0400
     53 H53       -10.0553    5.2613   56.5151 H       1  ZINC000077537368    0.1000
     54 H54       -10.7565    3.6732   56.1071 H       1  ZINC000077537368    0.0800
@<TRIPOS>BOND
     1     1     2    1
     2     1    28    1
     3     1    29    1
     4     1    30    1
     5     2    10    1
     6     2     3    1
     7     3     4    2
     8     4     5    1
     9     4     9    1
    10     5     6    1
    11     5     7    1
    12     5     8    1
    13     6    31    1
    14     6    32    1
    15     6    33    1
    16     7    34    1
    17     7    35    1
    18     7    36    1
    19     8    37    1
    20     8    38    1
    21     8    39    1
    22     9    10    2
    23     9    40    1
    24    10    11    1
    25    11    12    2
    26    11    13   am
    27    13    27    1
    28    13    14    1
    29    14    15    1
    30    14    41    1
    31    14    42    1
    32    15    16    1
    33    15    43    1
    34    15    44    1
    35    16    17    1
    36    16    26    1
    37    17    18    1
    38    17    45    1
    39    17    46    1
    40    18    25   ar
    41    18    19   ar
    42    19    20   ar
    43    19    47    1
    44    20    21   ar
    45    20    48    1
    46    21    22    1
    47    21    24   ar
    48    22    23    3
    49    24    25   ar
    50    24    49    1
    51    25    50    1
    52    26    27    1
    53    26    51    1
    54    26    52    1
    55    27    53    1
    56    27    54    1
@<TRIPOS>SUBSTRUCTURE
     1 ZINC000077537368        1 TEMP              0 ****  ****    0 ROOT


##########                                Name:    ZINC000828026236
##########                DOCK_Rotatable_Bonds:                   1
##########                         Heavy_Atoms:                  19
##########                    Molecular_Weight:             383.045
##########                DOCK_Rotatable_Bonds:                   1
##########                       Formal_Charge:                   0
##########                     HBond_Acceptors:                   5
##########                        HBond_Donors:                   0
##########                         Heavy_Atoms:                  19
##########                          Grid_Score:          -24.443159
##########                     Grid_vdw_energy:          -24.660780
##########                      Grid_es_energy:            0.217620
##########           Internal_energy_repulsive:            2.209342

@<TRIPOS>MOLECULE
ZINC000828026236
 28 30 1 0 0
SMALL
USER_CHARGES


@<TRIPOS>ATOM
      1 N1         -6.0629    3.2193   55.2786 N.1     1  ZINC000828026236   -0.3800
      2 C2         -5.6070    3.1022   54.2448 C.1     1  ZINC000828026236    0.2600
      3 C3         -5.0324    2.9545   52.9415 C.ar    1  ZINC000828026236   -0.0500
      4 C4         -3.7685    3.4827   52.6561 C.ar    1  ZINC000828026236    0.0100
      5 C5         -3.2574    3.3129   51.3802 C.ar    1  ZINC000828026236   -0.1600
      6 Br6        -1.5542    4.0043   50.9363 Br      1  ZINC000828026236   -0.0100
      7 C7         -4.0023    2.6328   50.4330 C.ar    1  ZINC000828026236    0.1800
      8 N8         -5.1923    2.1423   50.7225 N.ar    1  ZINC000828026236   -0.5000
      9 C9         -5.7252    2.2710   51.9270 C.ar    1  ZINC000828026236    0.3600
     10 N10        -6.9773    1.7401   52.1860 N.3     1  ZINC000828026236   -0.4900
     11 C11        -7.1374    0.4293   51.5408 C.3     1  ZINC000828026236    0.0500
     12 C12        -8.3541   -0.2928   52.1335 C.3     1  ZINC000828026236    0.1100
     13 N13        -9.4899    0.6327   52.1159 N.pl3   1  ZINC000828026236   -0.4400
     14 C14       -10.8149    0.3553   52.2516 C.2     1  ZINC000828026236   -0.0300
     15 Br15      -11.5914   -1.3491   52.5121 Br      1  ZINC000828026236    0.0200
     16 C16       -11.4675    1.5342   52.1641 C.2     1  ZINC000828026236    0.0300
     17 N17       -10.5550    2.5035   51.9798 N.2     1  ZINC000828026236   -0.4700
     18 C18        -9.3693    1.9744   51.9510 C.2     1  ZINC000828026236    0.2300
     19 C19        -8.0414    2.6709   51.7718 C.3     1  ZINC000828026236    0.1500
     20 H20        -3.2056    4.0103   53.4120 H       1  ZINC000828026236    0.1600
     21 H21        -3.6024    2.5014   49.4385 H       1  ZINC000828026236    0.1800
     22 H22        -7.2840    0.5678   50.4695 H       1  ZINC000828026236    0.0700
     23 H23        -6.2424   -0.1697   51.7093 H       1  ZINC000828026236    0.1100
     24 H24        -8.5876   -1.1727   51.5340 H       1  ZINC000828026236    0.1100
     25 H25        -8.1400   -0.5926   53.1594 H       1  ZINC000828026236    0.1000
     26 H26       -12.5363    1.6739   52.2303 H       1  ZINC000828026236    0.1800
     27 H27        -8.0089    3.5667   52.3921 H       1  ZINC000828026236    0.1200
     28 H28        -7.9063    2.9423   50.7249 H       1  ZINC000828026236    0.1000
@<TRIPOS>BOND
     1     1     2    3
     2     2     3    1
     3     3     9   ar
     4     3     4   ar
     5     4     5   ar
     6     4    20    1
     7     5     6    1
     8     5     7   ar
     9     7     8   ar
    10     7    21    1
    11     8     9   ar
    12     9    10    1
    13    10    19    1
    14    10    11    1
    15    11    12    1
    16    11    22    1
    17    11    23    1
    18    12    13    1
    19    12    24    1
    20    12    25    1
    21    13    18    1
    22    13    14    1
    23    14    15    1
    24    14    16    2
    25    16    17    1
    26    16    26    1
    27    17    18    2
    28    18    19    1
    29    19    27    1
    30    19    28    1
@<TRIPOS>SUBSTRUCTURE
     1 ZINC000828026236        1 TEMP              0 ****  ****    0 ROOT


##########                                Name:    ZINC000331626032
##########                DOCK_Rotatable_Bonds:                   5
##########                         Heavy_Atoms:                  25
##########                    Molecular_Weight:              339.44
##########                DOCK_Rotatable_Bonds:                   5
##########                       Formal_Charge:        -2.16067e-07
##########                     HBond_Acceptors:                   6
##########                        HBond_Donors:                   2
##########                         Heavy_Atoms:                  25
##########                          Grid_Score:          -24.367500
##########                     Grid_vdw_energy:          -23.934677
##########                      Grid_es_energy:           -0.432824
##########           Internal_energy_repulsive:           21.181395

@<TRIPOS>MOLECULE
ZINC000331626032
 50 52 1 0 0
SMALL
USER_CHARGES


@<TRIPOS>ATOM
      1 C1        -11.8114   -3.0199   54.7354 C.3     1  ZINC000331626032   -0.2000
      2 C2        -12.2283   -1.5719   55.0014 C.3     1  ZINC000331626032    0.0700
      3 H3        -11.3404   -0.9416   55.0514 H       1  ZINC000331626032    0.1100
      4 C4        -13.1217   -1.0935   53.8861 C.2     1  ZINC000331626032    0.5200
      5 O5        -14.3092   -1.3392   53.9126 O.2     1  ZINC000331626032   -0.5000
      6 N6        -12.6013   -0.3926   52.8593 N.am    1  ZINC000331626032   -0.5800
      7 C7        -13.4697    0.0725   51.7752 C.3     1  ZINC000331626032    0.0800
      8 C8        -11.2313   -0.1093   52.8289 C.ar    1  ZINC000331626032    0.1400
      9 C9        -10.3637   -0.9423   52.1347 C.ar    1  ZINC000331626032   -0.1000
     10 C10        -9.0121   -0.6598   52.1065 C.ar    1  ZINC000331626032   -0.1100
     11 C11        -8.5224    0.4507   52.7690 C.ar    1  ZINC000331626032   -0.1200
     12 C12        -9.3836    1.2819   53.4615 C.ar    1  ZINC000331626032   -0.1100
     13 C13       -10.7371    1.0088   53.4879 C.ar    1  ZINC000331626032   -0.1200
     14 N14       -12.9540   -1.4976   56.2764 N.3     1  ZINC000331626032   -0.5100
     15 C15       -13.5774   -2.7865   56.6030 C.3     1  ZINC000331626032    0.0500
     16 C16       -14.4416   -2.6335   57.8567 C.3     1  ZINC000331626032   -0.1100
     17 C17       -13.5656   -2.1599   59.0198 C.3     1  ZINC000331626032   -0.1100
     18 C18       -12.8902   -0.8406   58.6353 C.3     1  ZINC000331626032   -0.0400
     19 H19       -13.6508   -0.0795   58.4613 H       1  ZINC000331626032    0.1000
     20 C20       -11.9807   -0.3969   59.7521 C.ar    1  ZINC000331626032    0.2300
     21 C21       -12.4227    0.5174   60.6950 C.ar    1  ZINC000331626032   -0.2900
     22 C22       -11.5542    0.8991   61.7059 C.ar    1  ZINC000331626032    0.1900
     23 N23       -10.3371    0.3826   61.7402 N.ar    1  ZINC000331626032   -0.5700
     24 C24        -9.9456   -0.4897   60.8228 C.ar    1  ZINC000331626032    0.5700
     25 N25        -8.6650   -1.0108   60.8891 N.pl3   1  ZINC000331626032   -0.8200
     26 N26       -10.7526   -0.8794   59.8471 N.ar    1  ZINC000331626032   -0.5700
     27 C27       -12.0710   -1.0455   57.3591 C.3     1  ZINC000331626032    0.0700
     28 H28       -12.6993   -3.6502   54.6854 H       1  ZINC000331626032    0.0700
     29 H29       -11.2729   -3.0750   53.7893 H       1  ZINC000331626032    0.0800
     30 H30       -11.1652   -3.3659   55.5421 H       1  ZINC000331626032    0.0700
     31 H31       -13.8548    1.0631   52.0176 H       1  ZINC000331626032    0.0600
     32 H32       -12.8988    0.1216   50.8479 H       1  ZINC000331626032    0.0800
     33 H33       -14.3019   -0.6208   51.6533 H       1  ZINC000331626032    0.0800
     34 H34       -10.7455   -1.8103   51.6176 H       1  ZINC000331626032    0.1200
     35 H35        -8.3369   -1.3074   51.5669 H       1  ZINC000331626032    0.1300
     36 H36        -7.4649    0.6693   52.7457 H       1  ZINC000331626032    0.1300
     37 H37        -8.9979    2.1482   53.9785 H       1  ZINC000331626032    0.1300
     38 H38       -11.4093    1.6583   54.0290 H       1  ZINC000331626032    0.1200
     39 H39       -14.2009   -3.1100   55.7694 H       1  ZINC000331626032    0.0900
     40 H40       -12.8011   -3.5296   56.7854 H       1  ZINC000331626032    0.0300
     41 H41       -15.2267   -1.9007   57.6704 H       1  ZINC000331626032    0.0800
     42 H42       -14.8918   -3.5940   58.1078 H       1  ZINC000331626032    0.0700
     43 H43       -14.1848   -2.0080   59.9038 H       1  ZINC000331626032    0.0700
     44 H44       -12.8043   -2.9106   59.2317 H       1  ZINC000331626032    0.0700
     45 H45       -13.4219    0.9240   60.6433 H       1  ZINC000331626032    0.1400
     46 H46       -11.8676    1.6099   62.4563 H       1  ZINC000331626032    0.1700
     47 H47        -8.0661   -0.7367   61.6011 H       1  ZINC000331626032    0.4100
     48 H48        -8.3666   -1.6501   60.2234 H       1  ZINC000331626032    0.4100
     49 H49       -11.3017   -1.7967   57.5380 H       1  ZINC000331626032    0.0400
     50 H50       -11.6001   -0.1044   57.0746 H       1  ZINC000331626032    0.0800
@<TRIPOS>BOND
     1     1     2    1
     2     1    28    1
     3     1    29    1
     4     1    30    1
     5     2     3    1
     6     2     4    1
     7     2    14    1
     8     4     5    2
     9     4     6   am
    10     6     7    1
    11     6     8    1
    12     7    31    1
    13     7    32    1
    14     7    33    1
    15     8    13   ar
    16     8     9   ar
    17     9    10   ar
    18     9    34    1
    19    10    11   ar
    20    10    35    1
    21    11    12   ar
    22    11    36    1
    23    12    13   ar
    24    12    37    1
    25    13    38    1
    26    14    27    1
    27    14    15    1
    28    15    16    1
    29    15    39    1
    30    15    40    1
    31    16    17    1
    32    16    41    1
    33    16    42    1
    34    17    18    1
    35    17    43    1
    36    17    44    1
    37    18    19    1
    38    18    20    1
    39    18    27    1
    40    20    26   ar
    41    20    21   ar
    42    21    22   ar
    43    21    45    1
    44    22    23   ar
    45    22    46    1
    46    23    24   ar
    47    24    25    1
    48    24    26   ar
    49    25    47    1
    50    25    48    1
    51    27    49    1
    52    27    50    1
@<TRIPOS>SUBSTRUCTURE
     1 ZINC000331626032        1 TEMP              0 ****  ****    0 ROOT


##########                                Name:    ZINC000302023461
##########                DOCK_Rotatable_Bonds:                   3
##########                         Heavy_Atoms:                  25
##########                    Molecular_Weight:             356.362
##########                DOCK_Rotatable_Bonds:                   3
##########                       Formal_Charge:        -2.08616e-07
##########                     HBond_Acceptors:                   9
##########                        HBond_Donors:                   1
##########                         Heavy_Atoms:                  25
##########                          Grid_Score:          -24.310671
##########                     Grid_vdw_energy:          -24.775764
##########                      Grid_es_energy:            0.465093
##########           Internal_energy_repulsive:           20.378031

@<TRIPOS>MOLECULE
ZINC000302023461
 37 40 1 0 0
SMALL
USER_CHARGES


@<TRIPOS>ATOM
      1 O1        -10.3128    4.1868   49.8424 O.2     1  ZINC000302023461   -0.1600
      2 N2         -9.1292    4.2072   50.1294 N.pl3   1  ZINC000302023461    0.0200
      3 O3         -8.3760    4.9720   49.5537 O.2     1  ZINC000302023461   -0.1300
      4 C4         -8.6074    3.3069   51.1823 C.ar    1  ZINC000302023461    0.0000
      5 C5         -9.4603    2.4398   51.8355 C.ar    1  ZINC000302023461   -0.0600
      6 C6         -8.9736    1.5982   52.8193 C.ar    1  ZINC000302023461   -0.0900
      7 C7         -7.6316    1.6217   53.1522 C.ar    1  ZINC000302023461   -0.0800
      8 C8         -6.7725    2.4864   52.5030 C.ar    1  ZINC000302023461   -0.0500
      9 C9         -7.2570    3.3295   51.5105 C.ar    1  ZINC000302023461   -0.1100
     10 S10        -6.1645    4.4341   50.6792 S.3     1  ZINC000302023461    0.1900
     11 C11        -4.6690    3.5085   50.5746 C.2     1  ZINC000302023461    0.2100
     12 N12        -4.5060    2.3980   49.8929 N.2     1  ZINC000302023461   -0.3200
     13 N13        -3.1738    1.9947   50.0795 N.pl3   1  ZINC000302023461   -0.4700
     14 C14        -2.6050    2.9185   50.8866 C.2     1  ZINC000302023461    0.3500
     15 C15        -1.2043    2.9151   51.3609 C.ar    1  ZINC000302023461   -0.0400
     16 C16        -0.8104    3.7769   52.3849 C.ar    1  ZINC000302023461   -0.0900
     17 C17         0.4968    3.7730   52.8240 C.ar    1  ZINC000302023461   -0.1100
     18 C18         1.4249    2.9140   52.2508 C.ar    1  ZINC000302023461    0.0800
     19 O19         2.7113    2.9332   52.6940 O.3     1  ZINC000302023461   -0.3000
     20 C20         3.5254    1.8045   52.3580 C.3     1  ZINC000302023461    0.0200
     21 C21         3.3198    1.4890   50.8704 C.3     1  ZINC000302023461    0.0200
     22 O22         1.9337    1.1978   50.6615 O.3     1  ZINC000302023461   -0.3000
     23 C23         1.0372    2.0495   51.2309 C.ar    1  ZINC000302023461    0.0500
     24 C24        -0.2742    2.0460   50.7893 C.ar    1  ZINC000302023461   -0.0500
     25 N25        -3.5179    3.8263   51.1708 N.2     1  ZINC000302023461   -0.5000
     26 H26       -10.5090    2.4189   51.5780 H       1  ZINC000302023461    0.1600
     27 H27        -9.6432    0.9214   53.3291 H       1  ZINC000302023461    0.1500
     28 H28        -7.2550    0.9631   53.9209 H       1  ZINC000302023461    0.1500
     29 H29        -5.7247    2.5047   52.7639 H       1  ZINC000302023461    0.1600
     30 H30        -2.7465    1.2091   49.7039 H       1  ZINC000302023461    0.4400
     31 H31        -1.5289    4.4471   52.8333 H       1  ZINC000302023461    0.1300
     32 H32         0.7999    4.4409   53.6168 H       1  ZINC000302023461    0.1500
     33 H33         4.5736    2.0394   52.5426 H       1  ZINC000302023461    0.1300
     34 H34         3.2292    0.9455   52.9602 H       1  ZINC000302023461    0.0800
     35 H35         3.6092    2.3505   50.2684 H       1  ZINC000302023461    0.0800
     36 H36         3.9231    0.6253   50.5909 H       1  ZINC000302023461    0.1300
     37 H37        -0.5766    1.3740   49.9998 H       1  ZINC000302023461    0.1600
@<TRIPOS>BOND
     1     1     2    2
     2     2     3    2
     3     2     4    1
     4     4     9   ar
     5     4     5   ar
     6     5     6   ar
     7     5    26    1
     8     6     7   ar
     9     6    27    1
    10     7     8   ar
    11     7    28    1
    12     8     9   ar
    13     8    29    1
    14     9    10    1
    15    10    11    1
    16    11    25    1
    17    11    12    2
    18    12    13    1
    19    13    14    1
    20    13    30    1
    21    14    15    1
    22    14    25    2
    23    15    24   ar
    24    15    16   ar
    25    16    17   ar
    26    16    31    1
    27    17    18   ar
    28    17    32    1
    29    18    23   ar
    30    18    19    1
    31    19    20    1
    32    20    21    1
    33    20    33    1
    34    20    34    1
    35    21    22    1
    36    21    35    1
    37    21    36    1
    38    22    23    1
    39    23    24   ar
    40    24    37    1
@<TRIPOS>SUBSTRUCTURE
     1 ZINC000302023461        1 TEMP              0 ****  ****    0 ROOT


##########                                Name:    ZINC000931749147
##########                DOCK_Rotatable_Bonds:                   5
##########                         Heavy_Atoms:                  25
##########                    Molecular_Weight:             354.397
##########                DOCK_Rotatable_Bonds:                   5
##########                       Formal_Charge:        -4.76837e-07
##########                     HBond_Acceptors:                   7
##########                        HBond_Donors:                   1
##########                         Heavy_Atoms:                  25
##########                          Grid_Score:          -24.190008
##########                     Grid_vdw_energy:          -24.211020
##########                      Grid_es_energy:            0.021012
##########           Internal_energy_repulsive:           82.028015

@<TRIPOS>MOLECULE
ZINC000931749147
 49 51 1 0 0
SMALL
USER_CHARGES


@<TRIPOS>ATOM
      1 C1         -8.4068   -0.3544   52.1418 C.3     1  ZINC000931749147   -0.1100
      2 C2         -9.3250    0.8332   52.2743 C.ar    1  ZINC000931749147   -0.1300
      3 C3        -10.5311    0.7069   52.9498 C.ar    1  ZINC000931749147    0.1800
      4 N4        -10.8956   -0.5242   53.5092 N.am    1  ZINC000931749147   -0.6800
      5 C5        -10.8374   -0.7016   54.8439 C.2     1  ZINC000931749147    0.7100
      6 O6        -10.4684    0.2073   55.5625 O.2     1  ZINC000931749147   -0.5500
      7 N7        -11.1882   -1.8863   55.3823 N.am    1  ZINC000931749147   -0.6200
      8 C8        -11.6379   -3.0007   54.5331 C.3     1  ZINC000931749147    0.0700
      9 C9        -12.9572   -3.5382   55.0993 C.3     1  ZINC000931749147    0.0500
     10 O10       -12.7899   -3.8266   56.4895 O.3     1  ZINC000931749147   -0.3700
     11 C11       -12.4761   -2.6848   57.2906 C.3     1  ZINC000931749147    0.0500
     12 C12       -11.1269   -2.1056   56.8361 C.3     1  ZINC000931749147    0.1300
     13 H13       -10.3274   -2.8072   57.0736 H       1  ZINC000931749147    0.0900
     14 C14       -10.8721   -0.7745   57.5463 C.3     1  ZINC000931749147   -0.1100
     15 C15       -10.9886   -0.9731   59.0589 C.3     1  ZINC000931749147   -0.1000
     16 C16        -9.7455   -0.4018   59.7480 C.3     1  ZINC000931749147   -0.1500
     17 C17        -9.9064   -0.5338   61.2647 C.3     1  ZINC000931749147    0.0600
     18 O18       -11.0950    0.1442   61.6771 O.3     1  ZINC000931749147   -0.3800
     19 C19       -12.2941   -0.3778   61.1012 C.3     1  ZINC000931749147    0.0600
     20 C20       -12.2292   -0.2395   59.5779 C.3     1  ZINC000931749147   -0.1500
     21 C21       -11.3755    1.8026   53.0705 C.ar    1  ZINC000931749147   -0.1200
     22 C22       -11.0151    3.0165   52.5189 C.ar    1  ZINC000931749147   -0.1100
     23 C23        -9.8123    3.1425   51.8454 C.ar    1  ZINC000931749147    0.0500
     24 F24        -9.4618    4.3309   51.3067 F       1  ZINC000931749147   -0.1300
     25 C25        -8.9642    2.0517   51.7280 C.ar    1  ZINC000931749147    0.0900
     26 F26        -7.7907    2.1762   51.0703 F       1  ZINC000931749147   -0.1200
     27 H27        -7.7239   -0.3823   52.9909 H       1  ZINC000931749147    0.0800
     28 H28        -8.9978   -1.2700   52.1206 H       1  ZINC000931749147    0.0700
     29 H29        -7.8345   -0.2699   51.2179 H       1  ZINC000931749147    0.0800
     30 H30       -11.1900   -1.2493   52.9360 H       1  ZINC000931749147    0.4100
     31 H31       -11.7931   -2.6463   53.5141 H       1  ZINC000931749147    0.0800
     32 H32       -10.8875   -3.7913   54.5371 H       1  ZINC000931749147    0.0900
     33 H33       -13.7390   -2.7890   54.9744 H       1  ZINC000931749147    0.0600
     34 H34       -13.2366   -4.4488   54.5695 H       1  ZINC000931749147    0.1100
     35 H35       -13.2562   -1.9326   57.1737 H       1  ZINC000931749147    0.0600
     36 H36       -12.4095   -2.9817   58.3373 H       1  ZINC000931749147    0.1100
     37 H37        -9.8712   -0.4184   57.3026 H       1  ZINC000931749147    0.1100
     38 H38       -11.6086   -0.0409   57.2184 H       1  ZINC000931749147    0.0700
     39 H39       -11.0742   -2.0367   59.2815 H       1  ZINC000931749147    0.0700
     40 H40        -8.8637   -0.9554   59.4258 H       1  ZINC000931749147    0.0700
     41 H41        -9.6335    0.6497   59.4837 H       1  ZINC000931749147    0.0700
     42 H42        -9.9780   -1.5880   61.5324 H       1  ZINC000931749147    0.0500
     43 H43        -9.0438   -0.0900   61.7618 H       1  ZINC000931749147    0.0900
     44 H44       -12.3967   -1.4300   61.3667 H       1  ZINC000931749147    0.0500
     45 H45       -13.1515    0.1783   61.4805 H       1  ZINC000931749147    0.0900
     46 H46       -12.1672    0.8153   59.3102 H       1  ZINC000931749147    0.0700
     47 H47       -13.1234   -0.6771   59.1340 H       1  ZINC000931749147    0.0700
     48 H48       -12.3144    1.7054   53.5955 H       1  ZINC000931749147    0.1800
     49 H49       -11.6724    3.8683   52.6130 H       1  ZINC000931749147    0.1500
@<TRIPOS>BOND
     1     1     2    1
     2     1    27    1
     3     1    28    1
     4     1    29    1
     5     2    25   ar
     6     2     3   ar
     7     3     4    1
     8     3    21   ar
     9     4     5   am
    10     4    30    1
    11     5     6    2
    12     5     7   am
    13     7    12    1
    14     7     8    1
    15     8     9    1
    16     8    31    1
    17     8    32    1
    18     9    10    1
    19     9    33    1
    20     9    34    1
    21    10    11    1
    22    11    12    1
    23    11    35    1
    24    11    36    1
    25    12    13    1
    26    12    14    1
    27    14    15    1
    28    14    37    1
    29    14    38    1
    30    15    20    1
    31    15    16    1
    32    15    39    1
    33    16    17    1
    34    16    40    1
    35    16    41    1
    36    17    18    1
    37    17    42    1
    38    17    43    1
    39    18    19    1
    40    19    20    1
    41    19    44    1
    42    19    45    1
    43    20    46    1
    44    20    47    1
    45    21    22   ar
    46    21    48    1
    47    22    23   ar
    48    22    49    1
    49    23    24    1
    50    23    25   ar
    51    25    26    1
@<TRIPOS>SUBSTRUCTURE
     1 ZINC000931749147        1 TEMP              0 ****  ****    0 ROOT


##########                                Name:    ZINC000879023512
##########                DOCK_Rotatable_Bonds:                   4
##########                         Heavy_Atoms:                  20
##########                    Molecular_Weight:             346.156
##########                DOCK_Rotatable_Bonds:                   4
##########                       Formal_Charge:        -5.96046e-08
##########                     HBond_Acceptors:                   7
##########                        HBond_Donors:                   1
##########                         Heavy_Atoms:                  20
##########                          Grid_Score:          -24.063389
##########                     Grid_vdw_energy:          -24.193403
##########                      Grid_es_energy:            0.130015
##########           Internal_energy_repulsive:            4.231011

@<TRIPOS>MOLECULE
ZINC000879023512
 33 34 1 0 0
SMALL
USER_CHARGES


@<TRIPOS>ATOM
      1 O1         -9.1706    1.2135   55.5939 O.2     1  ZINC000879023512   -0.5600
      2 C2         -8.2064    1.9505   55.6672 C.2     1  ZINC000879023512    0.7200
      3 N3         -7.8193    2.4370   56.8631 N.am    1  ZINC000879023512   -0.6800
      4 C4         -8.5309    2.0981   58.0200 C.ar    1  ZINC000879023512    0.1800
      5 C5         -9.2657    3.0652   58.6927 C.ar    1  ZINC000879023512   -0.0900
      6 C6         -9.9669    2.7281   59.8341 C.ar    1  ZINC000879023512   -0.0700
      7 C7         -9.9371    1.4286   60.3073 C.ar    1  ZINC000879023512   -0.0700
      8 Br8       -10.8983    0.9709   61.8701 Br      1  ZINC000879023512    0.0200
      9 C9         -9.2055    0.4627   59.6387 C.ar    1  ZINC000879023512    0.0000
     10 N10        -9.1760   -0.9268   60.1478 N.pl3   1  ZINC000879023512    0.0200
     11 O11        -8.5323   -1.7773   59.5598 O.2     1  ZINC000879023512   -0.1500
     12 O12        -9.7954   -1.2197   61.1549 O.2     1  ZINC000879023512   -0.1300
     13 C13        -8.5077    0.7928   58.4937 C.ar    1  ZINC000879023512   -0.0500
     14 N14        -7.5213    2.2768   54.5533 N.am    1  ZINC000879023512   -0.6300
     15 C15        -6.3351    3.1438   54.5000 C.3     1  ZINC000879023512    0.0900
     16 C16        -5.9118    3.2507   53.0199 C.3     1  ZINC000879023512   -0.1200
     17 C17        -7.2169    2.8971   52.2588 C.3     1  ZINC000879023512   -0.1400
     18 H18        -7.8694    3.7664   52.1774 H       1  ZINC000879023512    0.1000
     19 C19        -6.9063    2.3169   50.8776 C.3     1  ZINC000879023512    0.0700
     20 F20        -6.1444    1.1524   51.0214 F       1  ZINC000879023512   -0.2100
     21 C21        -7.8334    1.8182   53.1875 C.3     1  ZINC000879023512    0.1300
     22 H22        -7.0477    3.0217   56.9221 H       1  ZINC000879023512    0.4200
     23 H23        -9.2886    4.0801   58.3241 H       1  ZINC000879023512    0.1600
     24 H24       -10.5386    3.4800   60.3578 H       1  ZINC000879023512    0.1600
     25 H25        -7.9373    0.0386   57.9721 H       1  ZINC000879023512    0.1800
     26 H26        -6.5809    4.1325   54.8876 H       1  ZINC000879023512    0.0700
     27 H27        -5.5279    2.7040   55.0856 H       1  ZINC000879023512    0.0700
     28 H28        -5.5900    4.2648   52.7830 H       1  ZINC000879023512    0.0900
     29 H29        -5.1252    2.5319   52.7908 H       1  ZINC000879023512    0.0900
     30 H30        -7.8387    2.0800   50.3651 H       1  ZINC000879023512    0.0800
     31 H31        -6.3465    3.0477   50.2940 H       1  ZINC000879023512    0.0800
     32 H32        -7.3783    0.8467   52.9945 H       1  ZINC000879023512    0.0800
     33 H33        -8.9129    1.7673   53.0454 H       1  ZINC000879023512    0.0900
@<TRIPOS>BOND
     1     1     2    2
     2     2     3   am
     3     2    14   am
     4     3     4    1
     5     3    22    1
     6     4    13   ar
     7     4     5   ar
     8     5     6   ar
     9     5    23    1
    10     6     7   ar
    11     6    24    1
    12     7     8    1
    13     7     9   ar
    14     9    10    1
    15     9    13   ar
    16    10    11    2
    17    10    12    2
    18    13    25    1
    19    14    21    1
    20    14    15    1
    21    15    16    1
    22    15    26    1
    23    15    27    1
    24    16    17    1
    25    16    28    1
    26    16    29    1
    27    17    18    1
    28    17    19    1
    29    17    21    1
    30    19    20    1
    31    19    30    1
    32    19    31    1
    33    21    32    1
    34    21    33    1
@<TRIPOS>SUBSTRUCTURE
     1 ZINC000879023512        1 TEMP              0 ****  ****    0 ROOT


##########                                Name:    ZINC000277311370
##########                DOCK_Rotatable_Bonds:                   5
##########                         Heavy_Atoms:                  17
##########                    Molecular_Weight:             361.036
##########                DOCK_Rotatable_Bonds:                   5
##########                       Formal_Charge:        -7.45058e-08
##########                     HBond_Acceptors:                   4
##########                        HBond_Donors:                   1
##########                         Heavy_Atoms:                  17
##########                          Grid_Score:          -24.014835
##########                     Grid_vdw_energy:          -22.295815
##########                      Grid_es_energy:           -1.719021
##########           Internal_energy_repulsive:           10.036798

@<TRIPOS>MOLECULE
ZINC000277311370
 28 28 1 0 0
SMALL
USER_CHARGES


@<TRIPOS>ATOM
      1 C1        -11.8836    4.1500   49.9713 C.3     1  ZINC000277311370   -0.1500
      2 C2        -11.1812    4.5576   48.6745 C.3     1  ZINC000277311370   -0.1000
      3 C3        -12.0342    5.5903   47.9353 C.3     1  ZINC000277311370   -0.1600
      4 C4         -9.8159    5.1650   49.0033 C.3     1  ZINC000277311370    0.2500
      5 H5         -9.9111    5.8292   49.8623 H       1  ZINC000277311370    0.1400
      6 C6         -9.3266    5.9289   47.8441 C.1     1  ZINC000277311370    0.1900
      7 N7         -8.9490    6.5184   46.9495 N.1     1  ZINC000277311370   -0.4100
      8 N8         -8.8676    4.0933   49.3175 N.am    1  ZINC000277311370   -0.7000
      9 C9         -8.1672    4.1293   50.4685 C.2     1  ZINC000277311370    0.5700
     10 O10        -8.3233    5.0499   51.2463 O.2     1  ZINC000277311370   -0.4900
     11 C11        -7.2073    3.0470   50.7853 C.ar    1  ZINC000277311370    0.1100
     12 N12        -5.9589    3.1230   50.3399 N.ar    1  ZINC000277311370   -0.4300
     13 C13        -5.0751    2.1834   50.5995 C.ar    1  ZINC000277311370    0.1300
     14 Br14       -3.3126    2.3520   49.9353 Br      1  ZINC000277311370    0.0200
     15 C15        -5.4184    1.0710   51.3537 C.ar    1  ZINC000277311370   -0.1100
     16 C16        -6.7106    0.9515   51.8384 C.ar    1  ZINC000277311370   -0.0400
     17 C17        -7.6203    1.9596   51.5535 C.ar    1  ZINC000277311370   -0.0900
     18 Br18       -9.3989    1.8536   52.1869 Br      1  ZINC000277311370    0.0300
     19 H19       -12.8563    3.7174   49.7371 H       1  ZINC000277311370    0.0700
     20 H20       -11.2759    3.4143   50.4979 H       1  ZINC000277311370    0.0700
     21 H21       -12.0191    5.0282   50.6026 H       1  ZINC000277311370    0.0600
     22 H22       -11.0457    3.6794   48.0433 H       1  ZINC000277311370    0.1000
     23 H23       -12.1697    6.4685   48.5666 H       1  ZINC000277311370    0.0600
     24 H24       -11.5337    5.8808   47.0115 H       1  ZINC000277311370    0.0600
     25 H25       -13.0069    5.1577   47.7011 H       1  ZINC000277311370    0.0700
     26 H26        -8.7439    3.3579   48.6973 H       1  ZINC000277311370    0.4200
     27 H27        -4.6855    0.3054   51.5609 H       1  ZINC000277311370    0.1600
     28 H28        -7.0023    0.0949   52.4281 H       1  ZINC000277311370    0.1700
@<TRIPOS>BOND
     1     1     2    1
     2     1    19    1
     3     1    20    1
     4     1    21    1
     5     2     3    1
     6     2     4    1
     7     2    22    1
     8     3    23    1
     9     3    24    1
    10     3    25    1
    11     4     5    1
    12     4     6    1
    13     4     8    1
    14     6     7    3
    15     8     9   am
    16     8    26    1
    17     9    10    2
    18     9    11    1
    19    11    17   ar
    20    11    12   ar
    21    12    13   ar
    22    13    14    1
    23    13    15   ar
    24    15    16   ar
    25    15    27    1
    26    16    17   ar
    27    16    28    1
    28    17    18    1
@<TRIPOS>SUBSTRUCTURE
     1 ZINC000277311370        1 TEMP              0 ****  ****    0 ROOT


##########                                Name:    ZINC000179211660
##########                DOCK_Rotatable_Bonds:                   6
##########                         Heavy_Atoms:                  23
##########                    Molecular_Weight:             385.208
##########                DOCK_Rotatable_Bonds:                   6
##########                       Formal_Charge:        -1.78814e-07
##########                     HBond_Acceptors:                   6
##########                        HBond_Donors:                   1
##########                         Heavy_Atoms:                  23
##########                          Grid_Score:          -24.007259
##########                     Grid_vdw_energy:          -24.491144
##########                      Grid_es_energy:            0.483886
##########           Internal_energy_repulsive:           15.356174

@<TRIPOS>MOLECULE
ZINC000179211660
 38 39 1 0 0
SMALL
USER_CHARGES


@<TRIPOS>ATOM
      1 C1         -6.6625    3.0802   49.8149 C.3     1  ZINC000179211660    0.0300
      2 O2         -6.4584    3.6437   51.1122 O.3     1  ZINC000179211660   -0.2700
      3 C3         -5.2228    3.4999   51.6598 C.ar    1  ZINC000179211660    0.1500
      4 C4         -4.2031    2.9091   50.9283 C.ar    1  ZINC000179211660   -0.2200
      5 C5         -2.9478    2.7646   51.4872 C.ar    1  ZINC000179211660   -0.0700
      6 C6         -2.7078    3.2077   52.7744 C.ar    1  ZINC000179211660   -0.1700
      7 C7         -3.7229    3.7967   53.5059 C.ar    1  ZINC000179211660   -0.0700
      8 C8         -4.9779    3.9491   52.9496 C.ar    1  ZINC000179211660   -0.1500
      9 C9         -6.0835    4.5914   53.7472 C.3     1  ZINC000179211660    0.1800
     10 N10        -6.4460    3.7210   54.8685 N.am    1  ZINC000179211660   -0.6200
     11 C11        -5.8780    3.9630   56.1970 C.3     1  ZINC000179211660    0.0700
     12 C12        -7.3019    2.6975   54.6777 C.2     1  ZINC000179211660    0.7000
     13 O13        -7.6040    1.9760   55.6086 O.2     1  ZINC000179211660   -0.5300
     14 N14        -7.8231    2.4739   53.4551 N.am    1  ZINC000179211660   -0.6800
     15 C15        -8.7129    1.4100   53.2567 C.ar    1  ZINC000179211660    0.1900
     16 C16       -10.0289    1.5162   53.6834 C.ar    1  ZINC000179211660   -0.1400
     17 C17       -10.9059    0.4642   53.4859 C.ar    1  ZINC000179211660    0.1500
     18 F18       -12.1874    0.5668   53.9010 F       1  ZINC000179211660   -0.1100
     19 C19       -10.4710   -0.6938   52.8624 C.ar    1  ZINC000179211660   -0.1300
     20 Br20      -11.6723   -2.1293   52.5934 Br      1  ZINC000179211660   -0.0100
     21 C21        -9.1592   -0.8017   52.4357 C.ar    1  ZINC000179211660   -0.0700
     22 C22        -8.2802    0.2482   52.6268 C.ar    1  ZINC000179211660    0.0600
     23 F23        -6.9995    0.1422   52.2098 F       1  ZINC000179211660   -0.1300
     24 H24        -7.6881    3.2653   49.4957 H       1  ZINC000179211660    0.1000
     25 H25        -5.9729    3.5394   49.1067 H       1  ZINC000179211660    0.0500
     26 H26        -6.4822    2.0058   49.8530 H       1  ZINC000179211660    0.0500
     27 H27        -4.3903    2.5621   49.9228 H       1  ZINC000179211660    0.1300
     28 H28        -2.1536    2.3046   50.9179 H       1  ZINC000179211660    0.1200
     29 H29        -1.7260    3.0935   53.2097 H       1  ZINC000179211660    0.1200
     30 H30        -3.5330    4.1418   54.5116 H       1  ZINC000179211660    0.1300
     31 H31        -5.7436    5.5539   54.1295 H       1  ZINC000179211660    0.0900
     32 H32        -6.9533    4.7411   53.1076 H       1  ZINC000179211660    0.1000
     33 H33        -6.5265    4.6414   56.7513 H       1  ZINC000179211660    0.0600
     34 H34        -5.7959    3.0184   56.7346 H       1  ZINC000179211660    0.0600
     35 H35        -4.8889    4.4093   56.0935 H       1  ZINC000179211660    0.0800
     36 H36        -7.5822    3.0495   52.7125 H       1  ZINC000179211660    0.4100
     37 H37       -10.3684    2.4188   54.1695 H       1  ZINC000179211660    0.1800
     38 H38        -8.8226   -1.7056   51.9498 H       1  ZINC000179211660    0.1600
@<TRIPOS>BOND
     1     1     2    1
     2     1    24    1
     3     1    25    1
     4     1    26    1
     5     2     3    1
     6     3     8   ar
     7     3     4   ar
     8     4     5   ar
     9     4    27    1
    10     5     6   ar
    11     5    28    1
    12     6     7   ar
    13     6    29    1
    14     7     8   ar
    15     7    30    1
    16     8     9    1
    17     9    10    1
    18     9    31    1
    19     9    32    1
    20    10    11    1
    21    10    12   am
    22    11    33    1
    23    11    34    1
    24    11    35    1
    25    12    13    2
    26    12    14   am
    27    14    15    1
    28    14    36    1
    29    15    22   ar
    30    15    16   ar
    31    16    17   ar
    32    16    37    1
    33    17    18    1
    34    17    19   ar
    35    19    20    1
    36    19    21   ar
    37    21    22   ar
    38    21    38    1
    39    22    23    1
@<TRIPOS>SUBSTRUCTURE
     1 ZINC000179211660        1 TEMP              0 ****  ****    0 ROOT


##########                                Name:    ZINC001135312623
##########                DOCK_Rotatable_Bonds:                   3
##########                         Heavy_Atoms:                  25
##########                    Molecular_Weight:             341.323
##########                DOCK_Rotatable_Bonds:                   3
##########                       Formal_Charge:        -1.78814e-07
##########                     HBond_Acceptors:                   8
##########                        HBond_Donors:                   2
##########                         Heavy_Atoms:                  25
##########                          Grid_Score:          -23.968405
##########                     Grid_vdw_energy:          -24.056671
##########                      Grid_es_energy:            0.088266
##########           Internal_energy_repulsive:            5.315208

@<TRIPOS>MOLECULE
ZINC001135312623
 40 42 1 0 0
SMALL
USER_CHARGES


@<TRIPOS>ATOM
      1 C1        -14.5456    1.0824   55.1260 C.3     1  ZINC001135312623   -0.1300
      2 C2        -14.0883   -0.2867   55.5588 C.ar    1  ZINC001135312623   -0.0600
      3 C3        -14.9817   -1.1598   56.1472 C.ar    1  ZINC001135312623   -0.1000
      4 C4        -14.5627   -2.4164   56.5452 C.ar    1  ZINC001135312623   -0.0300
      5 C5        -15.5405   -3.3667   57.1871 C.3     1  ZINC001135312623   -0.1300
      6 C6        -13.2489   -2.8028   56.3549 C.ar    1  ZINC001135312623   -0.0200
      7 N7        -12.8048   -4.1485   56.7823 N.pl3   1  ZINC001135312623    0.0200
      8 O8        -11.6828   -4.3061   57.2296 O.2     1  ZINC001135312623   -0.1500
      9 O9        -13.5612   -5.0984   56.6869 O.2     1  ZINC001135312623   -0.1500
     10 C10       -12.3504   -1.9346   55.7660 C.ar    1  ZINC001135312623   -0.0700
     11 C11       -12.7690   -0.6739   55.3609 C.ar    1  ZINC001135312623    0.1500
     12 N12       -11.8620    0.2076   54.7644 N.am    1  ZINC001135312623   -0.6600
     13 C13       -11.2262   -0.1455   53.6296 C.2     1  ZINC001135312623    0.5600
     14 O14       -11.4414   -1.2306   53.1246 O.2     1  ZINC001135312623   -0.5000
     15 C15       -10.2692    0.7845   53.0000 C.ar    1  ZINC001135312623   -0.1600
     16 C16       -10.5375    2.1558   52.9776 C.ar    1  ZINC001135312623   -0.0400
     17 C17        -9.6439    3.0236   52.3891 C.ar    1  ZINC001135312623   -0.1500
     18 C18        -8.4759    2.5341   51.8187 C.ar    1  ZINC001135312623    0.2000
     19 N19        -7.5591    3.3949   51.2148 N.am    1  ZINC001135312623   -0.6700
     20 C20        -6.6078    2.8931   50.4019 C.2     1  ZINC001135312623    0.6600
     21 O21        -5.7948    3.6414   49.8962 O.2     1  ZINC001135312623   -0.4900
     22 O22        -6.5474    1.5743   50.1441 O.3     1  ZINC001135312623   -0.3400
     23 C23        -6.9272    0.6670   51.2150 C.3     1  ZINC001135312623    0.1100
     24 C24        -8.2052    1.1667   51.8412 C.ar    1  ZINC001135312623   -0.1800
     25 C25        -9.0890    0.2957   52.4298 C.ar    1  ZINC001135312623    0.0000
     26 H26       -14.9045    1.0375   54.0977 H       1  ZINC001135312623    0.0900
     27 H27       -15.3519    1.4192   55.7778 H       1  ZINC001135312623    0.0800
     28 H28       -13.7114    1.7810   55.1894 H       1  ZINC001135312623    0.0700
     29 H29       -16.0086   -0.8611   56.2973 H       1  ZINC001135312623    0.1500
     30 H30       -16.0808   -3.9104   56.4122 H       1  ZINC001135312623    0.0900
     31 H31       -15.0001   -4.0732   57.8172 H       1  ZINC001135312623    0.0800
     32 H32       -16.2476   -2.8038   57.7963 H       1  ZINC001135312623    0.0800
     33 H33       -11.3243   -2.2370   55.6177 H       1  ZINC001135312623    0.1700
     34 H34       -11.6902    1.0731   55.1672 H       1  ZINC001135312623    0.4200
     35 H35       -11.4459    2.5355   53.4216 H       1  ZINC001135312623    0.1400
     36 H36        -9.8513    4.0833   52.3712 H       1  ZINC001135312623    0.1500
     37 H37        -7.6061    4.3497   51.3788 H       1  ZINC001135312623    0.4300
     38 H38        -7.0852   -0.3322   50.8089 H       1  ZINC001135312623    0.1300
     39 H39        -6.1384    0.6381   51.9668 H       1  ZINC001135312623    0.1000
     40 H40        -8.8755   -0.7629   52.4489 H       1  ZINC001135312623    0.1500
@<TRIPOS>BOND
     1     1     2    1
     2     1    26    1
     3     1    27    1
     4     1    28    1
     5     2    11   ar
     6     2     3   ar
     7     3     4   ar
     8     3    29    1
     9     4     5    1
    10     4     6   ar
    11     5    30    1
    12     5    31    1
    13     5    32    1
    14     6     7    1
    15     6    10   ar
    16     7     8    2
    17     7     9    2
    18    10    11   ar
    19    10    33    1
    20    11    12    1
    21    12    13   am
    22    12    34    1
    23    13    14    2
    24    13    15    1
    25    15    25   ar
    26    15    16   ar
    27    16    17   ar
    28    16    35    1
    29    17    18   ar
    30    17    36    1
    31    18    24   ar
    32    18    19    1
    33    19    20   am
    34    19    37    1
    35    20    21    2
    36    20    22    1
    37    22    23    1
    38    23    24    1
    39    23    38    1
    40    23    39    1
    41    24    25   ar
    42    25    40    1
@<TRIPOS>SUBSTRUCTURE
     1 ZINC001135312623        1 TEMP              0 ****  ****    0 ROOT


##########                                Name:    ZINC000507831344
##########                DOCK_Rotatable_Bonds:                   6
##########                         Heavy_Atoms:                  31
##########                    Molecular_Weight:              422.53
##########                DOCK_Rotatable_Bonds:                   6
##########                       Formal_Charge:          -0.0200002
##########                     HBond_Acceptors:                   8
##########                        HBond_Donors:                   2
##########                         Heavy_Atoms:                  31
##########                          Grid_Score:          -23.939278
##########                     Grid_vdw_energy:          -23.479425
##########                      Grid_es_energy:           -0.459853
##########           Internal_energy_repulsive:          147.997910

@<TRIPOS>MOLECULE
ZINC000507831344
 61 64 1 0 0
SMALL
USER_CHARGES


@<TRIPOS>ATOM
      1 C1        -14.1225    2.3050   58.2002 C.3     1  ZINC000507831344   -0.1000
      2 C2        -12.7130    1.8409   57.9370 C.ar    1  ZINC000507831344   -0.0800
      3 C3        -11.7762    2.7115   57.4117 C.ar    1  ZINC000507831344   -0.0800
      4 C4        -10.4843    2.2391   57.1850 C.ar    1  ZINC000507831344    0.0900
      5 N5         -9.5019    3.0866   56.6542 N.am    1  ZINC000507831344   -0.6700
      6 C6         -8.2556    2.6215   56.4382 C.2     1  ZINC000507831344    0.5100
      7 O7         -7.9839    1.4694   56.7032 O.2     1  ZINC000507831344   -0.5100
      8 C8         -7.1995    3.5326   55.8676 C.3     1  ZINC000507831344   -0.1400
      9 C9         -7.6306    4.0055   54.4779 C.3     1  ZINC000507831344   -0.0500
     10 C10        -6.4621    3.9122   53.5307 C.2     1  ZINC000507831344   -0.2200
     11 C11        -6.2699    2.7910   52.7869 C.2     1  ZINC000507831344    0.2100
     12 C12        -7.2220    1.6283   52.9003 C.3     1  ZINC000507831344   -0.1400
     13 N13        -5.2085    2.7311   51.9392 N.pl3   1  ZINC000507831344   -0.3000
     14 N14        -4.7599    1.7339   51.0648 N.am    1  ZINC000507831344   -0.5100
     15 C15        -3.6486    2.1773   50.4465 C.2     1  ZINC000507831344    0.5500
     16 O16        -2.9975    1.5606   49.6187 O.2     1  ZINC000507831344   -0.5400
     17 C17        -3.3687    3.4607   50.9131 C.2     1  ZINC000507831344   -0.3500
     18 C18        -4.3489    3.7965   51.8444 C.2     1  ZINC000507831344    0.3500
     19 N19        -4.5466    4.8963   52.5805 N.2     1  ZINC000507831344   -0.4800
     20 C20        -5.5685    4.9816   53.4046 C.2     1  ZINC000507831344    0.2500
     21 C21        -5.7713    6.2305   54.2232 C.3     1  ZINC000507831344   -0.1200
     22 C22       -10.1828    0.9211   57.4914 C.ar    1  ZINC000507831344    0.0800
     23 N23       -11.1020    0.1174   57.9917 N.ar    1  ZINC000507831344   -0.4900
     24 C24       -12.3368    0.5330   58.2249 C.ar    1  ZINC000507831344    0.2800
     25 N25       -13.2724   -0.3516   58.7543 N.3     1  ZINC000507831344   -0.4800
     26 C26       -13.9826   -1.0675   57.6867 C.3     1  ZINC000507831344    0.0600
     27 C27       -15.0982   -1.9192   58.2965 C.3     1  ZINC000507831344   -0.1200
     28 C28       -14.4895   -2.9154   59.2873 C.3     1  ZINC000507831344   -0.1200
     29 C29       -13.7150   -2.1466   60.3613 C.3     1  ZINC000507831344   -0.1100
     30 C30       -12.6396   -1.2882   59.6916 C.3     1  ZINC000507831344    0.0900
     31 H31       -11.9466   -1.9319   59.1497 H       1  ZINC000507831344    0.0600
     32 C32       -11.8763   -0.5024   60.7598 C.3     1  ZINC000507831344   -0.1400
     33 H33       -14.2128    2.6209   59.2395 H       1  ZINC000507831344    0.0700
     34 H34       -14.3577    3.1429   57.5439 H       1  ZINC000507831344    0.0600
     35 H35       -14.8163    1.4866   58.0076 H       1  ZINC000507831344    0.0800
     36 H36       -12.0391    3.7335   57.1821 H       1  ZINC000507831344    0.1500
     37 H37        -9.7191    4.0080   56.4424 H       1  ZINC000507831344    0.4100
     38 H38        -7.0720    4.3952   56.5216 H       1  ZINC000507831344    0.1000
     39 H39        -6.2561    2.9921   55.7910 H       1  ZINC000507831344    0.1000
     40 H40        -8.4431    3.3756   54.1155 H       1  ZINC000507831344    0.0900
     41 H41        -7.9704    5.0396   54.5351 H       1  ZINC000507831344    0.1000
     42 H42        -8.0283    1.7472   52.1766 H       1  ZINC000507831344    0.1000
     43 H43        -6.6872    0.6999   52.6992 H       1  ZINC000507831344    0.0800
     44 H44        -7.6388    1.5968   53.9069 H       1  ZINC000507831344    0.1100
     45 H45        -5.1783    0.8697   50.9279 H       1  ZINC000507831344    0.4400
     46 H46        -2.5405    4.0829   50.6077 H       1  ZINC000507831344    0.1700
     47 H47        -4.9788    6.9446   53.9989 H       1  ZINC000507831344    0.0900
     48 H48        -6.7377    6.6718   53.9794 H       1  ZINC000507831344    0.1000
     49 H49        -5.7440    5.9785   55.2833 H       1  ZINC000507831344    0.0900
     50 H50        -9.1844    0.5478   57.3182 H       1  ZINC000507831344    0.1600
     51 H51       -14.4141   -0.3475   56.9915 H       1  ZINC000507831344    0.0700
     52 H52       -13.2834   -1.7120   57.1542 H       1  ZINC000507831344    0.0500
     53 H53       -15.8054   -1.2738   58.8176 H       1  ZINC000507831344    0.0700
     54 H54       -15.6151   -2.4624   57.5054 H       1  ZINC000507831344    0.0700
     55 H55       -15.2848   -3.4948   59.7562 H       1  ZINC000507831344    0.0700
     56 H56       -13.8117   -3.5862   58.7594 H       1  ZINC000507831344    0.0600
     57 H57       -14.4004   -1.5048   60.9149 H       1  ZINC000507831344    0.0700
     58 H58       -13.2437   -2.8522   61.0455 H       1  ZINC000507831344    0.0700
     59 H59       -11.3347   -1.1957   61.4033 H       1  ZINC000507831344    0.0600
     60 H60       -11.1698    0.1735   60.2780 H       1  ZINC000507831344    0.0500
     61 H61       -12.5806    0.0748   61.3588 H       1  ZINC000507831344    0.0600
@<TRIPOS>BOND
     1     1     2    1
     2     1    33    1
     3     1    34    1
     4     1    35    1
     5     2    24   ar
     6     2     3   ar
     7     3     4   ar
     8     3    36    1
     9     4     5    1
    10     4    22   ar
    11     5     6   am
    12     5    37    1
    13     6     7    2
    14     6     8    1
    15     8     9    1
    16     8    38    1
    17     8    39    1
    18     9    10    1
    19     9    40    1
    20     9    41    1
    21    10    20    1
    22    10    11    2
    23    11    12    1
    24    11    13    1
    25    12    42    1
    26    12    43    1
    27    12    44    1
    28    13    18    1
    29    13    14    1
    30    14    15   am
    31    14    45    1
    32    15    16    2
    33    15    17    1
    34    17    18    2
    35    17    46    1
    36    18    19    1
    37    19    20    2
    38    20    21    1
    39    21    47    1
    40    21    48    1
    41    21    49    1
    42    22    23   ar
    43    22    50    1
    44    23    24   ar
    45    24    25    1
    46    25    30    1
    47    25    26    1
    48    26    27    1
    49    26    51    1
    50    26    52    1
    51    27    28    1
    52    27    53    1
    53    27    54    1
    54    28    29    1
    55    28    55    1
    56    28    56    1
    57    29    30    1
    58    29    57    1
    59    29    58    1
    60    30    31    1
    61    30    32    1
    62    32    59    1
    63    32    60    1
    64    32    61    1
@<TRIPOS>SUBSTRUCTURE
     1 ZINC000507831344        1 TEMP              0 ****  ****    0 ROOT


##########                                Name:    ZINC000176150038
##########                DOCK_Rotatable_Bonds:                   4
##########                         Heavy_Atoms:                  23
##########                    Molecular_Weight:             333.712
##########                DOCK_Rotatable_Bonds:                   4
##########                       Formal_Charge:        -2.23517e-07
##########                     HBond_Acceptors:                  10
##########                        HBond_Donors:                   1
##########                         Heavy_Atoms:                  23
##########                          Grid_Score:          -23.820175
##########                     Grid_vdw_energy:          -23.855173
##########                      Grid_es_energy:            0.034998
##########           Internal_energy_repulsive:           14.405745

@<TRIPOS>MOLECULE
ZINC000176150038
 32 34 1 0 0
SMALL
USER_CHARGES


@<TRIPOS>ATOM
      1 C1        -11.2506   -0.4050   57.4680 C.3     1  ZINC000176150038   -0.0900
      2 C2        -10.2391   -0.7786   58.5209 C.2     1  ZINC000176150038    0.2600
      3 N3        -10.1991   -1.8984   59.1945 N.2     1  ZINC000176150038   -0.3300
      4 N4         -9.2104   -1.8986   60.0141 N.2     1  ZINC000176150038   -0.0300
      5 N5         -8.5561   -0.7912   59.9229 N.2     1  ZINC000176150038   -0.0700
      6 N6         -9.2023   -0.0213   58.9398 N.pl3   1  ZINC000176150038   -0.3300
      7 C7         -8.8503    1.2621   58.4949 C.ar    1  ZINC000176150038    0.1400
      8 C8         -9.3447    2.3830   59.1476 C.ar    1  ZINC000176150038   -0.1000
      9 C9         -8.9988    3.6480   58.7111 C.ar    1  ZINC000176150038   -0.1100
     10 C10        -8.1591    3.8010   57.6231 C.ar    1  ZINC000176150038    0.1000
     11 F11        -7.8222    5.0387   57.1988 F       1  ZINC000176150038   -0.1200
     12 C12        -7.6608    2.6806   56.9653 C.ar    1  ZINC000176150038    0.1300
     13 N13        -6.8111    2.8347   55.8642 N.am    1  ZINC000176150038   -0.6500
     14 C14        -5.4985    3.0739   56.0543 C.2     1  ZINC000176150038    0.5700
     15 O15        -5.0528    3.1556   57.1817 O.2     1  ZINC000176150038   -0.4800
     16 C16        -4.5978    3.2372   54.8872 C.ar    1  ZINC000176150038    0.1400
     17 N17        -5.0929    3.2930   53.6526 N.ar    1  ZINC000176150038   -0.4800
     18 C18        -4.2975    3.4382   52.6150 C.ar    1  ZINC000176150038    0.3000
     19 N19        -2.9886    3.5343   52.7466 N.ar    1  ZINC000176150038   -0.4800
     20 C20        -2.4177    3.4882   53.9378 C.ar    1  ZINC000176150038    0.1700
     21 C21        -3.2162    3.3410   55.0651 C.ar    1  ZINC000176150038   -0.1000
     22 Cl22       -2.5146    3.2755   56.6517 Cl      1  ZINC000176150038    0.0100
     23 C23        -8.0034    1.4109   57.4060 C.ar    1  ZINC000176150038   -0.0800
     24 H24       -10.8963   -0.7338   56.4910 H       1  ZINC000176150038    0.1100
     25 H25       -12.2021   -0.8876   57.6908 H       1  ZINC000176150038    0.1100
     26 H26       -11.3847    0.6767   57.4607 H       1  ZINC000176150038    0.0900
     27 H27       -10.0010    2.2665   59.9974 H       1  ZINC000176150038    0.1500
     28 H28        -9.3851    4.5184   59.2205 H       1  ZINC000176150038    0.1600
     29 H29        -7.1670    2.7693   54.9642 H       1  ZINC000176150038    0.4300
     30 H30        -4.7290    3.4797   51.6259 H       1  ZINC000176150038    0.2200
     31 H31        -1.3449    3.5678   54.0338 H       1  ZINC000176150038    0.1900
     32 H32        -7.6180    0.5395   56.8974 H       1  ZINC000176150038    0.1700
@<TRIPOS>BOND
     1     1     2    1
     2     1    24    1
     3     1    25    1
     4     1    26    1
     5     2     6    1
     6     2     3    2
     7     3     4    1
     8     4     5    2
     9     5     6    1
    10     6     7    1
    11     7    23   ar
    12     7     8   ar
    13     8     9   ar
    14     8    27    1
    15     9    10   ar
    16     9    28    1
    17    10    11    1
    18    10    12   ar
    19    12    13    1
    20    12    23   ar
    21    13    14   am
    22    13    29    1
    23    14    15    2
    24    14    16    1
    25    16    21   ar
    26    16    17   ar
    27    17    18   ar
    28    18    19   ar
    29    18    30    1
    30    19    20   ar
    31    20    21   ar
    32    20    31    1
    33    21    22    1
    34    23    32    1
@<TRIPOS>SUBSTRUCTURE
     1 ZINC000176150038        1 TEMP              0 ****  ****    0 ROOT


##########                                Name:    ZINC000866034032
##########                DOCK_Rotatable_Bonds:                   4
##########                         Heavy_Atoms:                  23
##########                    Molecular_Weight:             383.242
##########                DOCK_Rotatable_Bonds:                   4
##########                       Formal_Charge:           0.0199999
##########                     HBond_Acceptors:                   6
##########                        HBond_Donors:                   1
##########                         Heavy_Atoms:                  23
##########                          Grid_Score:          -23.795162
##########                     Grid_vdw_energy:          -24.476925
##########                      Grid_es_energy:            0.681762
##########           Internal_energy_repulsive:           13.499056

@<TRIPOS>MOLECULE
ZINC000866034032
 42 44 1 0 0
SMALL
USER_CHARGES


@<TRIPOS>ATOM
      1 C1          2.3580    1.6028   51.5568 C.3     1  ZINC000866034032   -0.1300
      2 C2          3.2871    1.7477   50.3499 C.3     1  ZINC000866034032   -0.0800
      3 C3          4.2814    0.5914   50.2252 C.3     1  ZINC000866034032   -0.1300
      4 C4          2.5479    2.0672   49.0413 C.3     1  ZINC000866034032    0.1400
      5 H5          1.5082    1.7400   49.0377 H       1  ZINC000866034032    0.1100
      6 N6          3.2777    1.6520   47.8408 N.am    1  ZINC000866034032   -0.7000
      7 C7          3.0071    0.4639   47.2650 C.2     1  ZINC000866034032    0.5100
      8 O8          2.1605   -0.2622   47.7414 O.2     1  ZINC000866034032   -0.5300
      9 C9          3.7566    0.0374   46.0291 C.3     1  ZINC000866034032   -0.1100
     10 C10         3.0523    0.5672   44.8066 C.ar    1  ZINC000866034032   -0.0500
     11 C11         3.7258    1.3905   43.9238 C.ar    1  ZINC000866034032   -0.0500
     12 C12         3.0801    1.8770   42.8025 C.ar    1  ZINC000866034032   -0.0900
     13 C13         1.7602    1.5396   42.5638 C.ar    1  ZINC000866034032   -0.0500
     14 Br14        0.8766    2.2045   41.0298 Br      1  ZINC000866034032    0.0200
     15 C15         1.0868    0.7153   43.4475 C.ar    1  ZINC000866034032   -0.0200
     16 N16        -0.3255    0.3536   43.1923 N.pl3   1  ZINC000866034032    0.0200
     17 O17        -0.9183   -0.3723   43.9704 O.2     1  ZINC000866034032   -0.1600
     18 O18        -0.8950    0.7816   42.2044 O.2     1  ZINC000866034032   -0.1300
     19 C19         1.7346    0.2251   44.5654 C.ar    1  ZINC000866034032   -0.0300
     20 C20         2.7217    3.5561   49.3831 C.3     1  ZINC000866034032   -0.1500
     21 H21         1.8912    4.0336   49.9029 H       1  ZINC000866034032    0.1200
     22 C22         3.3308    4.3715   48.2207 C.3     1  ZINC000866034032   -0.1400
     23 C23         4.8492    4.3538   48.5024 C.3     1  ZINC000866034032    0.0500
     24 O24         5.0611    3.1747   49.3087 O.3     1  ZINC000866034032   -0.3600
     25 C25         3.9409    3.1331   50.2420 C.3     1  ZINC000866034032    0.0600
     26 H26         4.0999    3.6753   51.1742 H       1  ZINC000866034032    0.1000
     27 H27         1.7804    2.5186   51.6827 H       1  ZINC000866034032    0.0600
     28 H28         1.6800    0.7649   51.3948 H       1  ZINC000866034032    0.0700
     29 H29         2.9517    1.4218   52.4528 H       1  ZINC000866034032    0.0700
     30 H30         3.7487   -0.3172   49.9449 H       1  ZINC000866034032    0.0600
     31 H31         5.0212    0.8293   49.4608 H       1  ZINC000866034032    0.0600
     32 H32         4.7826    0.4386   51.1810 H       1  ZINC000866034032    0.0600
     33 H33         3.9557    2.2321   47.4604 H       1  ZINC000866034032    0.4100
     34 H34         4.7712    0.4344   46.0643 H       1  ZINC000866034032    0.1100
     35 H35         3.7937   -1.0510   45.9840 H       1  ZINC000866034032    0.1200
     36 H36         4.7564    1.6539   44.1103 H       1  ZINC000866034032    0.1500
     37 H37         3.6060    2.5209   42.1131 H       1  ZINC000866034032    0.1600
     38 H38         1.2091   -0.4188   45.2551 H       1  ZINC000866034032    0.1600
     39 H39         3.1142    3.8942   47.2651 H       1  ZINC000866034032    0.0800
     40 H40         2.9523    5.3937   48.2322 H       1  ZINC000866034032    0.0800
     41 H41         5.4075    4.2806   47.5692 H       1  ZINC000866034032    0.0900
     42 H42         5.1435    5.2475   49.0527 H       1  ZINC000866034032    0.0600
@<TRIPOS>BOND
     1     1     2    1
     2     1    27    1
     3     1    28    1
     4     1    29    1
     5     2    25    1
     6     2     3    1
     7     2     4    1
     8     3    30    1
     9     3    31    1
    10     3    32    1
    11     4     5    1
    12     4     6    1
    13     4    20    1
    14     6     7   am
    15     6    33    1
    16     7     8    2
    17     7     9    1
    18     9    10    1
    19     9    34    1
    20     9    35    1
    21    10    19   ar
    22    10    11   ar
    23    11    12   ar
    24    11    36    1
    25    12    13   ar
    26    12    37    1
    27    13    14    1
    28    13    15   ar
    29    15    16    1
    30    15    19   ar
    31    16    17    2
    32    16    18    2
    33    19    38    1
    34    20    21    1
    35    20    25    1
    36    20    22    1
    37    22    23    1
    38    22    39    1
    39    22    40    1
    40    23    24    1
    41    23    41    1
    42    23    42    1
    43    24    25    1
    44    25    26    1
@<TRIPOS>SUBSTRUCTURE
     1 ZINC000866034032        1 TEMP              0 ****  ****    0 ROOT


##########                                Name:    ZINC000836820897
##########                DOCK_Rotatable_Bonds:                   5
##########                         Heavy_Atoms:                  22
##########                    Molecular_Weight:             330.355
##########                DOCK_Rotatable_Bonds:                   5
##########                       Formal_Charge:          -0.0200003
##########                     HBond_Acceptors:                   8
##########                        HBond_Donors:                   1
##########                         Heavy_Atoms:                  22
##########                          Grid_Score:          -23.792997
##########                     Grid_vdw_energy:          -24.094843
##########                      Grid_es_energy:            0.301846
##########           Internal_energy_repulsive:            9.770579

@<TRIPOS>MOLECULE
ZINC000836820897
 38 40 1 0 0
SMALL
USER_CHARGES


@<TRIPOS>ATOM
      1 O1        -12.3962   -2.8735   58.2269 O.2     1  ZINC000836820897   -0.5200
      2 C2        -11.8476   -1.8229   57.9566 C.2     1  ZINC000836820897    0.5800
      3 C3        -12.1319   -1.1501   56.6725 C.ar    1  ZINC000836820897   -0.1600
      4 C4        -12.7903    0.0811   56.6573 C.ar    1  ZINC000836820897   -0.0100
      5 C5        -13.0527    0.7048   55.4562 C.ar    1  ZINC000836820897   -0.1700
      6 C6        -12.6642    0.1117   54.2649 C.ar    1  ZINC000836820897    0.2200
      7 F7        -12.9238    0.7272   53.0905 F       1  ZINC000836820897   -0.1100
      8 C8        -12.0096   -1.1109   54.2743 C.ar    1  ZINC000836820897   -0.7200
      9 S9        -11.5184   -1.8570   52.7555 S.o2    1  ZINC000836820897    2.7000
     10 O10       -11.3918   -3.2484   53.0146 O.2     1  ZINC000836820897   -0.9400
     11 O11       -12.3751   -1.3280   51.7529 O.2     1  ZINC000836820897   -0.9400
     12 N12        -9.9959   -1.3056   52.4084 N.am    1  ZINC000836820897   -1.0800
     13 C13        -9.7591    0.1292   52.2315 C.3     1  ZINC000836820897    0.0700
     14 C14        -9.3516    0.9355   53.4663 C.3     1  ZINC000836820897   -0.1800
     15 C15        -8.3212    0.6311   52.3771 C.3     1  ZINC000836820897   -0.1900
     16 C16       -11.7380   -1.7407   55.4697 C.ar    1  ZINC000836820897    0.0600
     17 N17       -10.9841   -1.2690   58.8308 N.am    1  ZINC000836820897   -0.6200
     18 C18       -10.2636   -0.0021   58.6376 C.3     1  ZINC000836820897    0.0900
     19 C19        -9.4166    0.2411   59.9044 C.3     1  ZINC000836820897   -0.1600
     20 C20       -10.1410   -0.6152   60.9765 C.3     1  ZINC000836820897    0.0800
     21 H21       -10.9934   -0.0794   61.3940 H       1  ZINC000836820897    0.1100
     22 F22        -9.2560   -1.0084   61.9861 F       1  ZINC000836820897   -0.1900
     23 C23       -10.6105   -1.8301   60.1419 C.3     1  ZINC000836820897    0.0800
     24 H24       -13.0937    0.5438   57.5848 H       1  ZINC000836820897    0.1500
     25 H25       -13.5622    1.6570   55.4432 H       1  ZINC000836820897    0.1600
     26 H26        -9.2609   -1.9328   52.3222 H       1  ZINC000836820897    0.4200
     27 H27       -10.3922    0.6227   51.4941 H       1  ZINC000836820897    0.1400
     28 H28        -9.7167    1.9597   53.5416 H       1  ZINC000836820897    0.1100
     29 H29        -9.2597    0.3983   54.4103 H       1  ZINC000836820897    0.1000
     30 H30        -7.5513   -0.1062   52.6044 H       1  ZINC000836820897    0.1000
     31 H31        -8.0083    1.4551   51.7357 H       1  ZINC000836820897    0.1000
     32 H32       -11.2279   -2.6926   55.4759 H       1  ZINC000836820897    0.1600
     33 H33        -9.6138   -0.0744   57.7654 H       1  ZINC000836820897    0.0800
     34 H34       -10.9755    0.8128   58.5054 H       1  ZINC000836820897    0.0800
     35 H35        -8.3946   -0.1081   59.7579 H       1  ZINC000836820897    0.0900
     36 H36        -9.4292    1.2956   60.1802 H       1  ZINC000836820897    0.1000
     37 H37       -11.4705   -2.3051   60.6140 H       1  ZINC000836820897    0.1000
     38 H38        -9.7975   -2.5464   60.0242 H       1  ZINC000836820897    0.0900
@<TRIPOS>BOND
     1     1     2    2
     2     2     3    1
     3     2    17   am
     4     3    16   ar
     5     3     4   ar
     6     4     5   ar
     7     4    24    1
     8     5     6   ar
     9     5    25    1
    10     6     7    1
    11     6     8   ar
    12     8     9    1
    13     8    16   ar
    14     9    10    2
    15     9    11    2
    16     9    12   am
    17    12    13    1
    18    12    26    1
    19    13    15    1
    20    13    14    1
    21    13    27    1
    22    14    15    1
    23    14    28    1
    24    14    29    1
    25    15    30    1
    26    15    31    1
    27    16    32    1
    28    17    23    1
    29    17    18    1
    30    18    19    1
    31    18    33    1
    32    18    34    1
    33    19    20    1
    34    19    35    1
    35    19    36    1
    36    20    21    1
    37    20    22    1
    38    20    23    1
    39    23    37    1
    40    23    38    1
@<TRIPOS>SUBSTRUCTURE
     1 ZINC000836820897        1 TEMP              0 ****  ****    0 ROOT


##########                                Name:    ZINC001076281847
##########                DOCK_Rotatable_Bonds:                   4
##########                         Heavy_Atoms:                  24
##########                    Molecular_Weight:             362.883
##########                DOCK_Rotatable_Bonds:                   4
##########                       Formal_Charge:         -0.00999959
##########                     HBond_Acceptors:                   7
##########                        HBond_Donors:                   0
##########                         Heavy_Atoms:                  24
##########                          Grid_Score:          -23.712048
##########                     Grid_vdw_energy:          -23.342947
##########                      Grid_es_energy:           -0.369101
##########           Internal_energy_repulsive:            8.304386

@<TRIPOS>MOLECULE
ZINC001076281847
 43 46 1 0 0
SMALL
USER_CHARGES


@<TRIPOS>ATOM
      1 C1         -7.8239    1.5238   53.6408 C.3     1  ZINC001076281847   -0.0900
      2 C2         -7.9429    2.1021   55.0273 C.2     1  ZINC001076281847    0.1400
      3 N3         -7.1410    3.0366   55.4463 N.2     1  ZINC001076281847   -0.4600
      4 S4         -7.5969    3.4110   57.0365 S.3     1  ZINC001076281847    0.2500
      5 C5         -8.8894    2.2781   57.1150 C.2     1  ZINC001076281847   -0.2100
      6 C6         -9.8087    2.0225   58.2815 C.3     1  ZINC001076281847    0.1200
      7 N7         -9.1619    1.0967   59.2209 N.3     1  ZINC001076281847   -0.5000
      8 C8         -9.0956   -0.2621   58.6606 C.3     1  ZINC001076281847    0.0300
      9 C9         -9.3837   -1.2358   59.8190 C.3     1  ZINC001076281847   -0.1000
     10 H10        -8.4822   -1.6344   60.2843 H       1  ZINC001076281847    0.1200
     11 C11       -10.3487   -2.3345   59.3012 C.3     1  ZINC001076281847   -0.1300
     12 C12       -11.6893   -1.5638   59.2177 C.3     1  ZINC001076281847    0.1000
     13 N13       -11.6787   -0.6619   60.3836 N.am    1  ZINC001076281847   -0.6000
     14 C14       -12.7685   -0.1531   60.9916 C.2     1  ZINC001076281847    0.5700
     15 O15       -12.6414    0.5839   61.9494 O.2     1  ZINC001076281847   -0.4900
     16 C16       -14.1208   -0.4919   60.4925 C.ar    1  ZINC001076281847   -0.0800
     17 C17       -14.4785   -0.2470   59.1632 C.ar    1  ZINC001076281847   -0.1800
     18 C18       -15.7506   -0.5792   58.7395 C.ar    1  ZINC001076281847    0.1000
     19 N19       -16.6215   -1.1193   59.5685 N.ar    1  ZINC001076281847   -0.4500
     20 C20       -16.3270   -1.3673   60.8289 C.ar    1  ZINC001076281847    0.1100
     21 C21       -15.0749   -1.0717   61.3366 C.ar    1  ZINC001076281847   -0.0500
     22 Cl22      -14.6967   -1.4028   62.9983 Cl      1  ZINC001076281847   -0.0100
     23 C23       -10.2673   -0.4015   60.7853 C.3     1  ZINC001076281847    0.1000
     24 H24       -10.0969   -0.6684   61.8284 H       1  ZINC001076281847    0.1100
     25 C25        -9.8825    1.0572   60.5022 C.3     1  ZINC001076281847    0.0200
     26 C26        -8.9100    1.6695   55.9087 C.2     1  ZINC001076281847   -0.1800
     27 H27        -8.5016    2.0498   52.9684 H       1  ZINC001076281847    0.0700
     28 H28        -6.7995    1.6375   53.2863 H       1  ZINC001076281847    0.0800
     29 H29        -8.0847    0.4657   53.6647 H       1  ZINC001076281847    0.0900
     30 H30       -10.0229    2.9636   58.7882 H       1  ZINC001076281847    0.1000
     31 H31       -10.7392    1.5837   57.9215 H       1  ZINC001076281847    0.1000
     32 H32        -9.8463   -0.3800   57.8791 H       1  ZINC001076281847    0.0600
     33 H33        -8.1016   -0.4497   58.2545 H       1  ZINC001076281847    0.0900
     34 H34       -10.0420   -2.6913   58.3180 H       1  ZINC001076281847    0.0900
     35 H35       -10.4167   -3.1597   60.0101 H       1  ZINC001076281847    0.0800
     36 H36       -11.7391   -0.9884   58.2933 H       1  ZINC001076281847    0.0800
     37 H37       -12.5292   -2.2556   59.2808 H       1  ZINC001076281847    0.0800
     38 H38       -13.7708    0.1956   58.4778 H       1  ZINC001076281847    0.1800
     39 H39       -16.0358   -0.3933   57.7145 H       1  ZINC001076281847    0.1700
     40 H40       -17.0720   -1.8111   61.4727 H       1  ZINC001076281847    0.1700
     41 H41        -9.2538    1.4356   61.3082 H       1  ZINC001076281847    0.1000
     42 H42       -10.7825    1.6665   60.4199 H       1  ZINC001076281847    0.0700
     43 H43        -9.6243    0.8994   55.6572 H       1  ZINC001076281847    0.1400
@<TRIPOS>BOND
     1     1     2    1
     2     1    27    1
     3     1    28    1
     4     1    29    1
     5     2    26    1
     6     2     3    2
     7     3     4    1
     8     4     5    1
     9     5     6    1
    10     5    26    2
    11     6     7    1
    12     6    30    1
    13     6    31    1
    14     7    25    1
    15     7     8    1
    16     8     9    1
    17     8    32    1
    18     8    33    1
    19     9    10    1
    20     9    23    1
    21     9    11    1
    22    11    12    1
    23    11    34    1
    24    11    35    1
    25    12    13    1
    26    12    36    1
    27    12    37    1
    28    13    14   am
    29    13    23    1
    30    14    15    2
    31    14    16    1
    32    16    21   ar
    33    16    17   ar
    34    17    18   ar
    35    17    38    1
    36    18    19   ar
    37    18    39    1
    38    19    20   ar
    39    20    21   ar
    40    20    40    1
    41    21    22    1
    42    23    24    1
    43    23    25    1
    44    25    41    1
    45    25    42    1
    46    26    43    1
@<TRIPOS>SUBSTRUCTURE
     1 ZINC001076281847        1 TEMP              0 ****  ****    0 ROOT


##########                                Name:    ZINC000154446008
##########                DOCK_Rotatable_Bonds:                   5
##########                         Heavy_Atoms:                  24
##########                    Molecular_Weight:              349.41
##########                DOCK_Rotatable_Bonds:                   5
##########                       Formal_Charge:          -0.0199999
##########                     HBond_Acceptors:                   8
##########                        HBond_Donors:                   0
##########                         Heavy_Atoms:                  24
##########                          Grid_Score:          -23.681232
##########                     Grid_vdw_energy:          -23.144831
##########                      Grid_es_energy:           -0.536401
##########           Internal_energy_repulsive:           15.179523

@<TRIPOS>MOLECULE
ZINC000154446008
 43 45 1 0 0
SMALL
USER_CHARGES


@<TRIPOS>ATOM
      1 O1        -11.5577   -2.4224   52.6264 O.2     1  ZINC000154446008   -0.5000
      2 C2        -11.7195   -1.5626   53.4723 C.2     1  ZINC000154446008    0.5900
      3 C3        -12.5748   -1.8280   54.6329 C.2     1  ZINC000154446008   -0.2300
      4 C4        -13.9386   -1.9100   54.6103 C.2     1  ZINC000154446008   -0.0600
      5 C5        -14.4881   -2.1699   55.8434 C.2     1  ZINC000154446008   -0.0500
      6 C6        -13.6067   -2.2966   56.8423 C.2     1  ZINC000154446008   -0.2100
      7 N7        -13.9688   -2.5766   58.2500 N.pl3   1  ZINC000154446008    0.0500
      8 O8        -15.1346   -2.7536   58.5553 O.2     1  ZINC000154446008   -0.1300
      9 O9        -13.1010   -2.6298   59.1030 O.2     1  ZINC000154446008   -0.1500
     10 S10       -12.0095   -2.0996   56.2755 S.3     1  ZINC000154446008    0.3500
     11 N11       -11.1080   -0.3683   53.3449 N.am    1  ZINC000154446008   -0.6100
     12 C12       -11.2847    0.6750   54.3648 C.3     1  ZINC000154446008    0.0800
     13 C13        -9.9020    1.1070   54.8686 C.3     1  ZINC000154446008    0.0900
     14 N14        -9.0462    1.3890   53.7076 N.am    1  ZINC000154446008   -0.6100
     15 C15        -8.4340    2.5831   53.5807 C.2     1  ZINC000154446008    0.5500
     16 O16        -8.5873    3.4385   54.4314 O.2     1  ZINC000154446008   -0.5300
     17 C17        -7.5802    2.8514   52.4132 C.2     1  ZINC000154446008   -0.1500
     18 C18        -6.4043    2.2645   52.3575 C.2     1  ZINC000154446008   -0.1100
     19 C19        -5.4289    2.4543   51.2325 C.3     1  ZINC000154446008   -0.1000
     20 C20        -6.1399    3.0456   50.0133 C.3     1  ZINC000154446008   -0.1200
     21 C21        -6.9531    4.2640   50.4674 C.3     1  ZINC000154446008   -0.1200
     22 C22        -8.1038    3.7742   51.3515 C.3     1  ZINC000154446008   -0.0700
     23 C23        -8.8696    0.3457   52.6877 C.3     1  ZINC000154446008    0.1000
     24 C24       -10.2478   -0.0882   52.1867 C.3     1  ZINC000154446008    0.1000
     25 H25       -14.5263   -1.7832   53.7131 H       1  ZINC000154446008    0.1800
     26 H26       -15.5532   -2.2644   55.9948 H       1  ZINC000154446008    0.1800
     27 H27       -11.7984    1.5310   53.9273 H       1  ZINC000154446008    0.0900
     28 H28       -11.8695    0.2795   55.1953 H       1  ZINC000154446008    0.0900
     29 H29        -9.9989    2.0052   55.4784 H       1  ZINC000154446008    0.1100
     30 H30        -9.4617    0.3051   55.4614 H       1  ZINC000154446008    0.0800
     31 H31        -6.1241    1.6084   53.1683 H       1  ZINC000154446008    0.1100
     32 H32        -4.6363    3.1308   51.5517 H       1  ZINC000154446008    0.0900
     33 H33        -4.9938    1.4914   50.9651 H       1  ZINC000154446008    0.0800
     34 H34        -5.4018    3.3534   49.2726 H       1  ZINC000154446008    0.0700
     35 H35        -6.8074    2.3000   49.5814 H       1  ZINC000154446008    0.0700
     36 H36        -6.3137    4.9404   51.0344 H       1  ZINC000154446008    0.0700
     37 H37        -7.3562    4.7806   49.5963 H       1  ZINC000154446008    0.0700
     38 H38        -8.8339    3.2487   50.7361 H       1  ZINC000154446008    0.0800
     39 H39        -8.5838    4.6297   51.8267 H       1  ZINC000154446008    0.0700
     40 H40        -8.2848    0.7413   51.8572 H       1  ZINC000154446008    0.1100
     41 H41        -8.3558   -0.5103   53.1252 H       1  ZINC000154446008    0.0800
     42 H42       -10.1493   -0.9864   51.5771 H       1  ZINC000154446008    0.1100
     43 H43       -10.6904    0.7123   51.5941 H       1  ZINC000154446008    0.0800
@<TRIPOS>BOND
     1     1     2    2
     2     2     3    1
     3     2    11   am
     4     3    10    1
     5     3     4    2
     6     4     5    1
     7     4    25    1
     8     5     6    2
     9     5    26    1
    10     6     7    1
    11     6    10    1
    12     7     8    2
    13     7     9    2
    14    11    24    1
    15    11    12    1
    16    12    13    1
    17    12    27    1
    18    12    28    1
    19    13    14    1
    20    13    29    1
    21    13    30    1
    22    14    15   am
    23    14    23    1
    24    15    16    2
    25    15    17    1
    26    17    22    1
    27    17    18    2
    28    18    19    1
    29    18    31    1
    30    19    20    1
    31    19    32    1
    32    19    33    1
    33    20    21    1
    34    20    34    1
    35    20    35    1
    36    21    22    1
    37    21    36    1
    38    21    37    1
    39    22    38    1
    40    22    39    1
    41    23    24    1
    42    23    40    1
    43    23    41    1
    44    24    42    1
    45    24    43    1
@<TRIPOS>SUBSTRUCTURE
     1 ZINC000154446008        1 TEMP              0 ****  ****    0 ROOT


##########                                Name:    ZINC000080099940
##########                DOCK_Rotatable_Bonds:                   4
##########                         Heavy_Atoms:                  26
##########                    Molecular_Weight:             343.388
##########                DOCK_Rotatable_Bonds:                   4
##########                       Formal_Charge:        -3.42727e-07
##########                     HBond_Acceptors:                   6
##########                        HBond_Donors:                   1
##########                         Heavy_Atoms:                  26
##########                          Grid_Score:          -23.404896
##########                     Grid_vdw_energy:          -24.396412
##########                      Grid_es_energy:            0.991515
##########           Internal_energy_repulsive:            2.655460

@<TRIPOS>MOLECULE
ZINC000080099940
 43 46 1 0 0
SMALL
USER_CHARGES


@<TRIPOS>ATOM
      1 C1         -1.6673    5.2609   51.2407 C.3     1  ZINC000080099940   -0.1100
      2 C2         -2.8426    4.3352   51.0584 C.2     1  ZINC000080099940   -0.0700
      3 C3         -3.7710    4.2078   52.0441 C.2     1  ZINC000080099940   -0.0900
      4 C4         -4.8639    3.3369   51.8557 C.2     1  ZINC000080099940    0.2300
      5 N5         -5.8935    3.0238   52.6283 N.2     1  ZINC000080099940   -0.4800
      6 C6         -6.6691    2.1345   51.9880 C.2     1  ZINC000080099940    0.1000
      7 C7         -7.9199    1.5346   52.5143 C.ar    1  ZINC000080099940   -0.0200
      8 C8         -8.2289    0.2050   52.2320 C.ar    1  ZINC000080099940   -0.0800
      9 C9         -9.3915   -0.3506   52.7224 C.ar    1  ZINC000080099940   -0.1200
     10 C10       -10.2554    0.4142   53.4975 C.ar    1  ZINC000080099940    0.1500
     11 N11       -11.4337   -0.1509   53.9931 N.am    1  ZINC000080099940   -0.6500
     12 C12       -12.5305   -0.2154   53.2126 C.2     1  ZINC000080099940    0.5700
     13 O13       -12.4950    0.2178   52.0780 O.2     1  ZINC000080099940   -0.5000
     14 C14       -13.7815   -0.8155   53.7389 C.ar    1  ZINC000080099940    0.1300
     15 C15       -14.9388   -0.8401   52.9598 C.ar    1  ZINC000080099940   -0.1700
     16 C16       -16.0819   -1.4134   53.4991 C.ar    1  ZINC000080099940    0.1600
     17 N17       -16.0363   -1.9126   54.7222 N.ar    1  ZINC000080099940   -0.5000
     18 C18       -14.9251   -1.8730   55.4320 C.ar    1  ZINC000080099940    0.3200
     19 C19       -14.9237   -2.4557   56.8218 C.3     1  ZINC000080099940   -0.0900
     20 N20       -13.8168   -1.3443   54.9601 N.ar    1  ZINC000080099940   -0.5000
     21 C21        -9.9491    1.7401   53.7804 C.ar    1  ZINC000080099940   -0.1400
     22 C22        -8.7849    2.2981   53.2965 C.ar    1  ZINC000080099940   -0.0700
     23 C23        -6.1112    1.8779   50.7718 C.2     1  ZINC000080099940   -0.0900
     24 N24        -4.9748    2.6326   50.6842 N.pl3   1  ZINC000080099940   -0.3600
     25 C25        -4.0352    2.7705   49.7033 C.2     1  ZINC000080099940    0.0600
     26 C26        -2.9871    3.6046   49.8674 C.2     1  ZINC000080099940   -0.1400
     27 H27        -1.0408    5.2324   50.3492 H       1  ZINC000080099940    0.0700
     28 H28        -2.0267    6.2775   51.3999 H       1  ZINC000080099940    0.0800
     29 H29        -1.0843    4.9420   52.1048 H       1  ZINC000080099940    0.0800
     30 H30        -3.6721    4.7678   52.9623 H       1  ZINC000080099940    0.1500
     31 H31        -7.5582   -0.3894   51.6293 H       1  ZINC000080099940    0.1300
     32 H32        -9.6312   -1.3808   52.5041 H       1  ZINC000080099940    0.1400
     33 H33       -11.4620   -0.4968   54.8989 H       1  ZINC000080099940    0.4200
     34 H34       -14.9449   -0.4235   51.9634 H       1  ZINC000080099940    0.1600
     35 H35       -16.9971   -1.4509   52.9268 H       1  ZINC000080099940    0.1800
     36 H36       -14.6463   -3.5087   56.7741 H       1  ZINC000080099940    0.0900
     37 H37       -14.2049   -1.9182   57.4403 H       1  ZINC000080099940    0.0900
     38 H38       -15.9190   -2.3614   57.2562 H       1  ZINC000080099940    0.0900
     39 H39       -10.6217    2.3326   54.3829 H       1  ZINC000080099940    0.1300
     40 H40        -8.5472    3.3283   53.5170 H       1  ZINC000080099940    0.1400
     41 H41        -6.4944    1.2049   50.0191 H       1  ZINC000080099940    0.1900
     42 H42        -4.1342    2.2101   48.7854 H       1  ZINC000080099940    0.1700
     43 H43        -2.2514    3.7043   49.0830 H       1  ZINC000080099940    0.1500
@<TRIPOS>BOND
     1     1     2    1
     2     1    27    1
     3     1    28    1
     4     1    29    1
     5     2    26    1
     6     2     3    2
     7     3     4    1
     8     3    30    1
     9     4    24    1
    10     4     5    2
    11     5     6    1
    12     6     7    1
    13     6    23    2
    14     7    22   ar
    15     7     8   ar
    16     8     9   ar
    17     8    31    1
    18     9    10   ar
    19     9    32    1
    20    10    11    1
    21    10    21   ar
    22    11    12   am
    23    11    33    1
    24    12    13    2
    25    12    14    1
    26    14    20   ar
    27    14    15   ar
    28    15    16   ar
    29    15    34    1
    30    16    17   ar
    31    16    35    1
    32    17    18   ar
    33    18    19    1
    34    18    20   ar
    35    19    36    1
    36    19    37    1
    37    19    38    1
    38    21    22   ar
    39    21    39    1
    40    22    40    1
    41    23    24    1
    42    23    41    1
    43    24    25    1
    44    25    26    2
    45    25    42    1
    46    26    43    1
@<TRIPOS>SUBSTRUCTURE
     1 ZINC000080099940        1 TEMP              0 ****  ****    0 ROOT


##########                                Name:    ZINC000004040798
##########                DOCK_Rotatable_Bonds:                   3
##########                         Heavy_Atoms:                  22
##########                    Molecular_Weight:             361.151
##########                DOCK_Rotatable_Bonds:                   3
##########                       Formal_Charge:           0.0200003
##########                     HBond_Acceptors:                   6
##########                        HBond_Donors:                   1
##########                         Heavy_Atoms:                  22
##########                          Grid_Score:          -23.262884
##########                     Grid_vdw_energy:          -22.841543
##########                      Grid_es_energy:           -0.421341
##########           Internal_energy_repulsive:            1.986887

@<TRIPOS>MOLECULE
ZINC000004040798
 31 33 1 0 0
SMALL
USER_CHARGES


@<TRIPOS>ATOM
      1 O1         -9.0404   -1.1958   59.0296 O.2     1  ZINC000004040798   -0.4800
      2 C2         -9.7030   -0.2720   59.4631 C.2     1  ZINC000004040798    0.6100
      3 N3        -10.4928    0.4384   58.6337 N.am    1  ZINC000004040798   -0.6600
      4 C4        -10.5465    0.1174   57.2736 C.ar    1  ZINC000004040798    0.2300
      5 C5        -11.2723   -0.9870   56.8474 C.ar    1  ZINC000004040798   -0.1300
      6 C6        -11.3232   -1.3016   55.5032 C.ar    1  ZINC000004040798   -0.0100
      7 C7        -10.6526   -0.5183   54.5821 C.ar    1  ZINC000004040798   -0.0600
      8 N8        -10.7098   -0.8587   53.1427 N.pl3   1  ZINC000004040798    0.0300
      9 O9        -11.3469   -1.8279   52.7709 O.2     1  ZINC000004040798   -0.1500
     10 O10       -10.1196   -0.1696   52.3300 O.2     1  ZINC000004040798   -0.1500
     11 C11        -9.9291    0.5829   55.0024 C.ar    1  ZINC000004040798    0.0000
     12 C12        -9.8781    0.9063   56.3447 C.ar    1  ZINC000004040798   -0.1400
     13 Br13       -8.8886    2.4120   56.9189 Br      1  ZINC000004040798    0.0000
     14 C14        -9.6466    0.0652   60.8922 C.2     1  ZINC000004040798   -0.0500
     15 C15        -8.8438   -0.5383   61.8066 C.2     1  ZINC000004040798   -0.0800
     16 C16        -9.1229    0.1154   63.0848 C.ar    1  ZINC000004040798   -0.1500
     17 C17        -8.6375   -0.0415   64.3849 C.ar    1  ZINC000004040798   -0.0500
     18 C18        -9.1191    0.7520   65.3880 C.ar    1  ZINC000004040798   -0.1400
     19 C19       -10.0864    1.7114   65.1228 C.ar    1  ZINC000004040798   -0.0700
     20 C20       -10.5783    1.8820   63.8466 C.ar    1  ZINC000004040798   -0.1100
     21 C21       -10.1035    1.0871   62.8101 C.ar    1  ZINC000004040798    0.0800
     22 O22       -10.3804    1.0253   61.4930 O.3     1  ZINC000004040798   -0.1900
     23 H23       -11.0242    1.1722   58.9803 H       1  ZINC000004040798    0.4300
     24 H24       -11.7960   -1.5998   57.5662 H       1  ZINC000004040798    0.1800
     25 H25       -11.8872   -2.1607   55.1714 H       1  ZINC000004040798    0.1700
     26 H26        -9.4064    1.1927   54.2804 H       1  ZINC000004040798    0.1700
     27 H27        -8.1419   -1.3392   61.6264 H       1  ZINC000004040798    0.1800
     28 H28        -7.8853   -0.7869   64.5968 H       1  ZINC000004040798    0.1400
     29 H29        -8.7446    0.6316   66.3938 H       1  ZINC000004040798    0.1400
     30 H30       -10.4582    2.3308   65.9256 H       1  ZINC000004040798    0.1400
     31 H31       -11.3308    2.6320   63.6523 H       1  ZINC000004040798    0.1400
@<TRIPOS>BOND
     1     1     2    2
     2     2     3   am
     3     2    14    1
     4     3     4    1
     5     3    23    1
     6     4    12   ar
     7     4     5   ar
     8     5     6   ar
     9     5    24    1
    10     6     7   ar
    11     6    25    1
    12     7     8    1
    13     7    11   ar
    14     8     9    2
    15     8    10    2
    16    11    12   ar
    17    11    26    1
    18    12    13    1
    19    14    22    1
    20    14    15    2
    21    15    16    1
    22    15    27    1
    23    16    21   ar
    24    16    17   ar
    25    17    18   ar
    26    17    28    1
    27    18    19   ar
    28    18    29    1
    29    19    20   ar
    30    19    30    1
    31    20    21   ar
    32    20    31    1
    33    21    22    1
@<TRIPOS>SUBSTRUCTURE
     1 ZINC000004040798        1 TEMP              0 ****  ****    0 ROOT


##########                                Name:    ZINC000444205493
##########                DOCK_Rotatable_Bonds:                   4
##########                         Heavy_Atoms:                  24
##########                    Molecular_Weight:             415.351
##########                DOCK_Rotatable_Bonds:                   4
##########                       Formal_Charge:         -0.00999995
##########                     HBond_Acceptors:                   6
##########                        HBond_Donors:                   1
##########                         Heavy_Atoms:                  24
##########                          Grid_Score:          -23.095854
##########                     Grid_vdw_energy:          -22.299109
##########                      Grid_es_energy:           -0.796745
##########           Internal_energy_repulsive:            4.196558

@<TRIPOS>MOLECULE
ZINC000444205493
 47 49 1 0 0
SMALL
USER_CHARGES


@<TRIPOS>ATOM
      1 C1        -14.1014    0.9209   48.0596 C.3     1  ZINC000444205493   -0.1700
      2 C2        -14.0338    0.0775   49.3066 C.2     1  ZINC000444205493    0.5100
      3 O3        -14.2410   -1.1159   49.2435 O.2     1  ZINC000444205493   -0.5100
      4 N4        -13.7432    0.6492   50.4919 N.am    1  ZINC000444205493   -0.6800
      5 C5        -13.6804   -0.1341   51.6501 C.ar    1  ZINC000444205493    0.2300
      6 C6        -12.4867   -0.7412   52.0154 C.ar    1  ZINC000444205493   -0.1400
      7 C7        -12.4277   -1.5134   53.1594 C.ar    1  ZINC000444205493    0.0200
      8 C8        -13.5560   -1.6826   53.9404 C.ar    1  ZINC000444205493   -0.6900
      9 S9        -13.4762   -2.6689   55.3983 S.o2    1  ZINC000444205493    2.7100
     10 O10       -14.8119   -3.0486   55.6996 O.2     1  ZINC000444205493   -0.9500
     11 O11       -12.4292   -3.6072   55.1911 O.2     1  ZINC000444205493   -0.9500
     12 N12       -12.9813   -1.6811   56.6319 N.am    1  ZINC000444205493   -1.0100
     13 C13       -13.6864   -0.4741   57.1032 C.3     1  ZINC000444205493    0.1200
     14 C14       -13.2181   -0.2839   58.5694 C.3     1  ZINC000444205493   -0.1200
     15 C15       -11.7482   -0.7385   58.4832 C.3     1  ZINC000444205493   -0.0700
     16 C16       -10.8440    0.4178   58.0438 C.3     1  ZINC000444205493   -0.1100
     17 C17       -10.2371    0.9423   59.3717 C.3     1  ZINC000444205493   -0.1200
     18 C18       -10.0220   -0.3562   60.1901 C.3     1  ZINC000444205493   -0.1000
     19 H19        -9.0986   -0.8497   59.8868 H       1  ZINC000444205493    0.0700
     20 C20        -9.9950   -0.0466   61.6881 C.3     1  ZINC000444205493   -0.1500
     21 C21       -11.2447   -1.2338   59.8384 C.3     1  ZINC000444205493   -0.1100
     22 C22       -11.7672   -1.8655   57.4453 C.3     1  ZINC000444205493    0.1300
     23 C23       -14.7470   -1.0791   53.5801 C.ar    1  ZINC000444205493    0.0300
     24 C24       -14.8116   -0.3012   52.4400 C.ar    1  ZINC000444205493   -0.1500
     25 Br25      -16.4404    0.5238   51.9478 Br      1  ZINC000444205493   -0.0300
     26 H26       -14.3469    0.2887   47.2062 H       1  ZINC000444205493    0.1000
     27 H27       -14.8698    1.6848   48.1788 H       1  ZINC000444205493    0.1000
     28 H28       -13.1365    1.3992   47.8917 H       1  ZINC000444205493    0.1000
     29 H29       -13.5777    1.6037   50.5424 H       1  ZINC000444205493    0.4200
     30 H30       -11.6049   -0.6102   51.4056 H       1  ZINC000444205493    0.1600
     31 H31       -11.4991   -1.9859   53.4439 H       1  ZINC000444205493    0.1500
     32 H32       -13.4045    0.3891   56.5002 H       1  ZINC000444205493    0.0800
     33 H33       -14.7650   -0.6269   57.0666 H       1  ZINC000444205493    0.0800
     34 H34       -13.2870    0.7618   58.8694 H       1  ZINC000444205493    0.0900
     35 H35       -13.7855   -0.9217   59.2471 H       1  ZINC000444205493    0.0800
     36 H36       -10.0580    0.0577   57.3800 H       1  ZINC000444205493    0.0700
     37 H37       -11.4297    1.1975   57.5568 H       1  ZINC000444205493    0.0700
     38 H38        -9.2875    1.4454   59.1897 H       1  ZINC000444205493    0.0700
     39 H39       -10.9361    1.6069   59.8794 H       1  ZINC000444205493    0.0700
     40 H40       -10.9321    0.4286   61.9779 H       1  ZINC000444205493    0.0500
     41 H41        -9.8688   -0.9730   62.2485 H       1  ZINC000444205493    0.0500
     42 H42        -9.1645    0.6252   61.9054 H       1  ZINC000444205493    0.0500
     43 H43       -12.0216   -1.1141   60.5935 H       1  ZINC000444205493    0.0700
     44 H44       -10.9475   -2.2801   59.7683 H       1  ZINC000444205493    0.0700
     45 H45       -11.7923   -2.8328   57.9469 H       1  ZINC000444205493    0.0700
     46 H46       -10.8854   -1.7992   56.8080 H       1  ZINC000444205493    0.0800
     47 H47       -15.6265   -1.2129   54.1924 H       1  ZINC000444205493    0.1500
@<TRIPOS>BOND
     1     1     2    1
     2     1    26    1
     3     1    27    1
     4     1    28    1
     5     2     3    2
     6     2     4   am
     7     4     5    1
     8     4    29    1
     9     5    24   ar
    10     5     6   ar
    11     6     7   ar
    12     6    30    1
    13     7     8   ar
    14     7    31    1
    15     8     9    1
    16     8    23   ar
    17     9    10    2
    18     9    11    2
    19     9    12   am
    20    12    22    1
    21    12    13    1
    22    13    14    1
    23    13    32    1
    24    13    33    1
    25    14    15    1
    26    14    34    1
    27    14    35    1
    28    15    21    1
    29    15    16    1
    30    15    22    1
    31    16    17    1
    32    16    36    1
    33    16    37    1
    34    17    18    1
    35    17    38    1
    36    17    39    1
    37    18    19    1
    38    18    20    1
    39    18    21    1
    40    20    40    1
    41    20    41    1
    42    20    42    1
    43    21    43    1
    44    21    44    1
    45    22    45    1
    46    22    46    1
    47    23    24   ar
    48    23    47    1
    49    24    25    1
@<TRIPOS>SUBSTRUCTURE
     1 ZINC000444205493        1 TEMP              0 ****  ****    0 ROOT


##########                                Name:    ZINC000965273005
##########                DOCK_Rotatable_Bonds:                   7
##########                         Heavy_Atoms:                  27
##########                    Molecular_Weight:             368.436
##########                DOCK_Rotatable_Bonds:                   7
##########                       Formal_Charge:           0.0100003
##########                     HBond_Acceptors:                   7
##########                        HBond_Donors:                   2
##########                         Heavy_Atoms:                  27
##########                          Grid_Score:          -23.058573
##########                     Grid_vdw_energy:          -22.018791
##########                      Grid_es_energy:           -1.039781
##########           Internal_energy_repulsive:            8.948146

@<TRIPOS>MOLECULE
ZINC000965273005
 51 54 1 0 0
SMALL
USER_CHARGES


@<TRIPOS>ATOM
      1 C1        -10.2777    3.3776   57.0137 C.3     1  ZINC000965273005   -0.1200
      2 C2         -8.9933    3.2274   56.2400 C.ar    1  ZINC000965273005   -0.0300
      3 C3         -7.7802    3.3933   56.8753 C.ar    1  ZINC000965273005   -0.1200
      4 C4         -6.5999    3.2558   56.1663 C.ar    1  ZINC000965273005   -0.0900
      5 C5         -6.6277    2.9509   54.8173 C.ar    1  ZINC000965273005   -0.1300
      6 C6         -7.8344    2.7823   54.1697 C.ar    1  ZINC000965273005   -0.0900
      7 C7         -9.0283    2.9145   54.8800 C.ar    1  ZINC000965273005   -0.1300
      8 C8        -10.3250    2.7352   54.1926 C.2     1  ZINC000965273005    0.5800
      9 O9        -11.0098    3.7031   53.9250 O.2     1  ZINC000965273005   -0.5200
     10 N10       -10.7475    1.4987   53.8628 N.am    1  ZINC000965273005   -0.6100
     11 C11       -10.0235    0.2430   54.1322 C.3     1  ZINC000965273005    0.0900
     12 C12       -11.1207   -0.8502   54.1557 C.3     1  ZINC000965273005    0.1500
     13 H13       -10.7040   -1.8273   53.9111 H       1  ZINC000965273005    0.1200
     14 N14       -11.8022   -0.8827   55.4521 N.am    1  ZINC000965273005   -0.7100
     15 C15       -12.2544   -2.0520   55.9466 C.2     1  ZINC000965273005    0.6000
     16 O16       -12.0982   -3.0800   55.3159 O.2     1  ZINC000965273005   -0.5400
     17 C17       -12.9386   -2.0850   57.2521 C.2     1  ZINC000965273005   -0.2800
     18 C18       -14.2989   -2.1892   57.4619 C.2     1  ZINC000965273005    0.1000
     19 N19       -14.5025   -2.1836   58.7890 N.pl3   1  ZINC000965273005   -0.3600
     20 C20       -15.8037   -2.2762   59.4558 C.3     1  ZINC000965273005    0.1000
     21 N21       -13.2623   -2.0750   59.4277 N.2     1  ZINC000965273005   -0.3000
     22 C22       -12.3242   -2.0217   58.5229 C.2     1  ZINC000965273005    0.1700
     23 C23       -10.8452   -1.9029   58.7865 C.3     1  ZINC000965273005   -0.0800
     24 C24       -10.3408   -2.3014   60.1749 C.3     1  ZINC000965273005   -0.1700
     25 C25       -10.0540   -3.1995   58.9699 C.3     1  ZINC000965273005   -0.1600
     26 C26       -12.0758   -0.3570   53.0366 C.3     1  ZINC000965273005    0.0900
     27 H27       -11.7169   -0.6720   52.0568 H       1  ZINC000965273005    0.0900
     28 O28       -13.4053   -0.8297   53.2620 O.3     1  ZINC000965273005   -0.5500
     29 C29       -12.0097    1.1779   53.1805 C.3     1  ZINC000965273005    0.0600
     30 H30       -10.6170    2.3973   57.3485 H       1  ZINC000965273005    0.0800
     31 H31       -10.1080    4.0184   57.8790 H       1  ZINC000965273005    0.0700
     32 H32       -11.0374    3.8257   56.3733 H       1  ZINC000965273005    0.0700
     33 H33        -7.7517    3.6314   57.9284 H       1  ZINC000965273005    0.1300
     34 H34        -5.6528    3.3874   56.6684 H       1  ZINC000965273005    0.1300
     35 H35        -5.7029    2.8449   54.2696 H       1  ZINC000965273005    0.1300
     36 H36        -7.8547    2.5447   53.1163 H       1  ZINC000965273005    0.1300
     37 H37        -9.3043    0.0418   53.3383 H       1  ZINC000965273005    0.0900
     38 H38        -9.5195    0.2953   55.0973 H       1  ZINC000965273005    0.0900
     39 H39       -11.9279   -0.0625   55.9547 H       1  ZINC000965273005    0.4000
     40 H40       -15.0598   -2.2614   56.6988 H       1  ZINC000965273005    0.1800
     41 H41       -16.0449   -3.3235   59.6380 H       1  ZINC000965273005    0.0800
     42 H42       -15.7643   -1.7420   60.4051 H       1  ZINC000965273005    0.1000
     43 H43       -16.5699   -1.8321   58.8205 H       1  ZINC000965273005    0.0900
     44 H44       -10.3437   -1.0737   58.2874 H       1  ZINC000965273005    0.1400
     45 H45        -9.5075   -1.7343   60.5896 H       1  ZINC000965273005    0.1000
     46 H46       -11.0788   -2.6495   60.8977 H       1  ZINC000965273005    0.1000
     47 H47       -10.6032   -4.1384   58.9000 H       1  ZINC000965273005    0.0900
     48 H48        -9.0319   -3.2232   58.5919 H       1  ZINC000965273005    0.1000
     49 H49       -13.5477   -1.7471   52.9915 H       1  ZINC000965273005    0.3900
     50 H50       -12.8556    1.5318   53.7698 H       1  ZINC000965273005    0.0800
     51 H51       -12.0212    1.6435   52.1949 H       1  ZINC000965273005    0.0800
@<TRIPOS>BOND
     1     1     2    1
     2     1    30    1
     3     1    31    1
     4     1    32    1
     5     2     7   ar
     6     2     3   ar
     7     3     4   ar
     8     3    33    1
     9     4     5   ar
    10     4    34    1
    11     5     6   ar
    12     5    35    1
    13     6     7   ar
    14     6    36    1
    15     7     8    1
    16     8     9    2
    17     8    10   am
    18    10    29    1
    19    10    11    1
    20    11    12    1
    21    11    37    1
    22    11    38    1
    23    12    13    1
    24    12    14    1
    25    12    26    1
    26    14    15   am
    27    14    39    1
    28    15    16    2
    29    15    17    1
    30    17    22    1
    31    17    18    2
    32    18    19    1
    33    18    40    1
    34    19    20    1
    35    19    21    1
    36    20    41    1
    37    20    42    1
    38    20    43    1
    39    21    22    2
    40    22    23    1
    41    23    25    1
    42    23    24    1
    43    23    44    1
    44    24    25    1
    45    24    45    1
    46    24    46    1
    47    25    47    1
    48    25    48    1
    49    26    27    1
    50    26    28    1
    51    26    29    1
    52    28    49    1
    53    29    50    1
    54    29    51    1
@<TRIPOS>SUBSTRUCTURE
     1 ZINC000965273005        1 TEMP              0 ****  ****    0 ROOT


##########                                Name:    ZINC000482962466
##########                DOCK_Rotatable_Bonds:                   2
##########                         Heavy_Atoms:                  25
##########                    Molecular_Weight:             404.303
##########                DOCK_Rotatable_Bonds:                   2
##########                       Formal_Charge:           0.0200002
##########                     HBond_Acceptors:                   4
##########                        HBond_Donors:                   0
##########                         Heavy_Atoms:                  25
##########                          Grid_Score:          -22.950073
##########                     Grid_vdw_energy:          -22.190849
##########                      Grid_es_energy:           -0.759223
##########           Internal_energy_repulsive:            5.944281

@<TRIPOS>MOLECULE
ZINC000482962466
 47 50 1 0 0
SMALL
USER_CHARGES


@<TRIPOS>ATOM
      1 C1          5.2942    4.9468   51.0230 C.3     1  ZINC000482962466   -0.1400
      2 C2          3.8546    4.4289   51.0060 C.3     1  ZINC000482962466    0.0700
      3 H3          3.4207    4.5920   50.0195 H       1  ZINC000482962466    0.0700
      4 C4          3.0287    5.1768   52.0587 C.3     1  ZINC000482962466    0.0800
      5 N5          1.7068    4.5375   52.1532 N.am    1  ZINC000482962466   -0.6100
      6 C6          0.5761    5.2675   52.0816 C.2     1  ZINC000482962466    0.5600
      7 O7          0.6391    6.4729   51.9370 O.2     1  ZINC000482962466   -0.5200
      8 C8         -0.7399    4.6028   52.1789 C.ar    1  ZINC000482962466   -0.1100
      9 C9         -1.2745    4.2955   53.4427 C.ar    1  ZINC000482962466   -0.0700
     10 C10        -2.4815    3.6852   53.5581 C.ar    1  ZINC000482962466   -0.1000
     11 C11        -3.2148    3.3517   52.4048 C.ar    1  ZINC000482962466   -0.0400
     12 C12        -4.4658    2.7200   52.4992 C.ar    1  ZINC000482962466   -0.0700
     13 C13        -5.1529    2.4096   51.3646 C.ar    1  ZINC000482962466   -0.0800
     14 Br14       -6.8368    1.5597   51.4987 Br      1  ZINC000482962466   -0.0400
     15 C15        -4.6333    2.7095   50.1055 C.ar    1  ZINC000482962466   -0.1000
     16 C16        -3.4247    3.3206   49.9749 C.ar    1  ZINC000482962466   -0.0900
     17 C17        -2.6864    3.6568   51.1243 C.ar    1  ZINC000482962466   -0.0500
     18 C18        -1.4402    4.2923   51.0247 C.ar    1  ZINC000482962466   -0.0700
     19 C19         1.6561    3.0771   52.3285 C.3     1  ZINC000482962466    0.0700
     20 C20         2.5502    2.4317   51.2651 C.3     1  ZINC000482962466    0.0800
     21 C21         2.6703    0.9310   51.5417 C.3     1  ZINC000482962466   -0.1100
     22 C22         3.4996    0.2828   50.4285 C.3     1  ZINC000482962466   -0.1500
     23 C23         2.8428    0.5765   49.0771 C.3     1  ZINC000482962466    0.0600
     24 O24         2.7356    1.9900   48.8972 O.3     1  ZINC000482962466   -0.3700
     25 C25         1.9319    2.6438   49.8817 C.3     1  ZINC000482962466    0.0400
     26 O26         3.8465    3.0309   51.3061 O.3     1  ZINC000482962466   -0.3500
     27 H27         5.8812    4.4132   50.2755 H       1  ZINC000482962466    0.0700
     28 H28         5.2995    6.0129   50.7960 H       1  ZINC000482962466    0.0800
     29 H29         5.7275    4.7833   52.0097 H       1  ZINC000482962466    0.0700
     30 H30         3.5315    5.1246   53.0245 H       1  ZINC000482962466    0.0800
     31 H31         2.9120    6.2190   51.7612 H       1  ZINC000482962466    0.1000
     32 H32        -0.7175    4.5480   54.3329 H       1  ZINC000482962466    0.1400
     33 H33        -2.8788    3.4552   54.5357 H       1  ZINC000482962466    0.1400
     34 H34        -4.8810    2.4811   53.4672 H       1  ZINC000482962466    0.1400
     35 H35        -5.1983    2.4528   49.2216 H       1  ZINC000482962466    0.1400
     36 H36        -3.0341    3.5464   48.9937 H       1  ZINC000482962466    0.1400
     37 H37        -1.0280    4.5337   50.0561 H       1  ZINC000482962466    0.1400
     38 H38         2.0186    2.8137   53.3222 H       1  ZINC000482962466    0.0900
     39 H39         0.6305    2.7281   52.2069 H       1  ZINC000482962466    0.1000
     40 H40         3.1632    0.7754   52.5013 H       1  ZINC000482962466    0.0800
     41 H41         1.6766    0.4836   51.5638 H       1  ZINC000482962466    0.0800
     42 H42         4.5090    0.6937   50.4399 H       1  ZINC000482962466    0.0800
     43 H43         3.5421   -0.7949   50.5862 H       1  ZINC000482962466    0.0800
     44 H44         3.4515    0.1536   48.2778 H       1  ZINC000482962466    0.1000
     45 H45         1.8487    0.1304   49.0517 H       1  ZINC000482962466    0.0500
     46 H46         0.9254    2.2258   49.8655 H       1  ZINC000482962466    0.0600
     47 H47         1.8862    3.7107   49.6636 H       1  ZINC000482962466    0.1000
@<TRIPOS>BOND
     1     1     2    1
     2     1    27    1
     3     1    28    1
     4     1    29    1
     5     2     3    1
     6     2    26    1
     7     2     4    1
     8     4     5    1
     9     4    30    1
    10     4    31    1
    11     5     6   am
    12     5    19    1
    13     6     7    2
    14     6     8    1
    15     8    18   ar
    16     8     9   ar
    17     9    10   ar
    18     9    32    1
    19    10    11   ar
    20    10    33    1
    21    11    17   ar
    22    11    12   ar
    23    12    13   ar
    24    12    34    1
    25    13    14    1
    26    13    15   ar
    27    15    16   ar
    28    15    35    1
    29    16    17   ar
    30    16    36    1
    31    17    18   ar
    32    18    37    1
    33    19    20    1
    34    19    38    1
    35    19    39    1
    36    20    25    1
    37    20    21    1
    38    20    26    1
    39    21    22    1
    40    21    40    1
    41    21    41    1
    42    22    23    1
    43    22    42    1
    44    22    43    1
    45    23    24    1
    46    23    44    1
    47    23    45    1
    48    24    25    1
    49    25    46    1
    50    25    47    1
@<TRIPOS>SUBSTRUCTURE
     1 ZINC000482962466        1 TEMP              0 ****  ****    0 ROOT


##########                                Name:    ZINC000279974681
##########                DOCK_Rotatable_Bonds:                   4
##########                         Heavy_Atoms:                  23
##########                    Molecular_Weight:              338.79
##########                DOCK_Rotatable_Bonds:                   4
##########                       Formal_Charge:           0.0100008
##########                     HBond_Acceptors:                   7
##########                        HBond_Donors:                   1
##########                         Heavy_Atoms:                  23
##########                          Grid_Score:          -22.912542
##########                     Grid_vdw_energy:          -22.885197
##########                      Grid_es_energy:           -0.027345
##########           Internal_energy_repulsive:           18.329502

@<TRIPOS>MOLECULE
ZINC000279974681
 42 45 1 0 0
SMALL
USER_CHARGES


@<TRIPOS>ATOM
      1 C1        -14.2316   -4.9334   56.0856 C.3     1  ZINC000279974681   -0.1400
      2 C2        -13.1498   -3.8529   56.0271 C.3     1  ZINC000279974681    0.0700
      3 H3        -12.2364   -4.2269   56.4898 H       1  ZINC000279974681    0.0600
      4 C4        -13.6307   -2.6058   56.7778 C.3     1  ZINC000279974681    0.1000
      5 N5        -12.6601   -1.5236   56.5491 N.am    1  ZINC000279974681   -0.6300
      6 C6        -12.1486   -0.8213   57.5795 C.2     1  ZINC000279974681    0.7100
      7 O7        -11.3478    0.0695   57.3700 O.2     1  ZINC000279974681   -0.5600
      8 N8        -12.5248   -1.1062   58.8420 N.am    1  ZINC000279974681   -0.6700
      9 C9        -11.9926   -0.3755   59.9137 C.ar    1  ZINC000279974681    0.2000
     10 C10       -12.4088    0.9288   60.1390 C.ar    1  ZINC000279974681   -0.1200
     11 C11       -11.8831    1.6501   61.1982 C.ar    1  ZINC000279974681    0.0700
     12 C12       -10.9371    1.0646   62.0357 C.ar    1  ZINC000279974681    0.0200
     13 C13       -10.5232   -0.2380   61.8075 C.ar    1  ZINC000279974681   -0.0700
     14 C14       -11.0526   -0.9594   60.7536 C.ar    1  ZINC000279974681   -0.0700
     15 Cl15      -10.5315   -2.5910   60.4709 Cl      1  ZINC000279974681   -0.0500
     16 O16       -10.5800    1.9723   62.9920 O.3     1  ZINC000279974681   -0.3000
     17 C17       -11.0105    3.2506   62.4884 C.3     1  ZINC000279974681    0.2100
     18 O18       -12.1190    2.9240   61.6294 O.3     1  ZINC000279974681   -0.3000
     19 C19       -12.2642   -1.2311   55.1624 C.3     1  ZINC000279974681    0.0800
     20 C20       -11.8501   -2.5453   54.4905 C.3     1  ZINC000279974681    0.1100
     21 H21       -10.9314   -2.9138   54.9470 H       1  ZINC000279974681    0.0700
     22 C22       -11.6179   -2.3048   52.9974 C.3     1  ZINC000279974681   -0.1600
     23 C23       -11.9653   -0.9220   52.4422 C.3     1  ZINC000279974681   -0.1700
     24 C24       -10.5012   -1.3360   52.6032 C.3     1  ZINC000279974681   -0.1600
     25 O25       -12.8892   -3.5116   54.6636 O.3     1  ZINC000279974681   -0.3600
     26 H26       -13.8898   -5.8192   55.5502 H       1  ZINC000279974681    0.0700
     27 H27       -14.4311   -5.1919   57.1256 H       1  ZINC000279974681    0.0800
     28 H28       -15.1446   -4.5588   55.6228 H       1  ZINC000279974681    0.0700
     29 H29       -14.6094   -2.3063   56.4030 H       1  ZINC000279974681    0.0800
     30 H30       -13.6955   -2.8215   57.8442 H       1  ZINC000279974681    0.1100
     31 H31       -13.1636   -1.8167   59.0089 H       1  ZINC000279974681    0.4100
     32 H32       -13.1423    1.3816   59.4883 H       1  ZINC000279974681    0.1800
     33 H33        -9.7892   -0.6920   62.4568 H       1  ZINC000279974681    0.1500
     34 H34       -11.3359    3.8943   63.3057 H       1  ZINC000279974681    0.1400
     35 H35       -10.2121    3.7266   61.9191 H       1  ZINC000279974681    0.0900
     36 H36       -13.1054   -0.7932   54.6250 H       1  ZINC000279974681    0.0900
     37 H37       -11.4243   -0.5365   55.1592 H       1  ZINC000279974681    0.0900
     38 H38       -11.7896   -3.1650   52.3504 H       1  ZINC000279974681    0.1100
     39 H39       -12.3658   -0.8723   51.4296 H       1  ZINC000279974681    0.1000
     40 H40       -12.3592   -0.1836   53.1405 H       1  ZINC000279974681    0.1000
     41 H41        -9.9319   -0.8700   53.4075 H       1  ZINC000279974681    0.1000
     42 H42        -9.9385   -1.5587   51.6966 H       1  ZINC000279974681    0.1000
@<TRIPOS>BOND
     1     1     2    1
     2     1    26    1
     3     1    27    1
     4     1    28    1
     5     2     3    1
     6     2    25    1
     7     2     4    1
     8     4     5    1
     9     4    29    1
    10     4    30    1
    11     5     6   am
    12     5    19    1
    13     6     7    2
    14     6     8   am
    15     8     9    1
    16     8    31    1
    17     9    14   ar
    18     9    10   ar
    19    10    11   ar
    20    10    32    1
    21    11    18    1
    22    11    12   ar
    23    12    13   ar
    24    12    16    1
    25    13    14   ar
    26    13    33    1
    27    14    15    1
    28    16    17    1
    29    17    18    1
    30    17    34    1
    31    17    35    1
    32    19    20    1
    33    19    36    1
    34    19    37    1
    35    20    21    1
    36    20    22    1
    37    20    25    1
    38    22    24    1
    39    22    23    1
    40    22    38    1
    41    23    24    1
    42    23    39    1
    43    23    40    1
    44    24    41    1
    45    24    42    1
@<TRIPOS>SUBSTRUCTURE
     1 ZINC000279974681        1 TEMP              0 ****  ****    0 ROOT


##########                                Name:    ZINC001010141213
##########                DOCK_Rotatable_Bonds:                   4
##########                         Heavy_Atoms:                  24
##########                    Molecular_Weight:             330.346
##########                DOCK_Rotatable_Bonds:                   4
##########                       Formal_Charge:          -0.0100003
##########                     HBond_Acceptors:                   9
##########                        HBond_Donors:                   1
##########                         Heavy_Atoms:                  24
##########                          Grid_Score:          -22.843771
##########                     Grid_vdw_energy:          -22.237101
##########                      Grid_es_energy:           -0.606670
##########           Internal_energy_repulsive:           13.963203

@<TRIPOS>MOLECULE
ZINC001010141213
 42 44 1 0 0
SMALL
USER_CHARGES


@<TRIPOS>ATOM
      1 C1        -11.3801    3.9273   54.7075 C.3     1  ZINC001010141213   -0.0800
      2 C2        -10.6910    2.9399   53.8012 C.2     1  ZINC001010141213   -0.1500
      3 C3         -9.5700    2.1799   54.0864 C.2     1  ZINC001010141213   -0.0400
      4 C4         -8.8043    2.1724   55.3430 C.2     1  ZINC001010141213    0.6000
      5 O5         -7.8203    2.8777   55.4600 O.2     1  ZINC001010141213   -0.5100
      6 N6         -9.1934    1.3839   56.3645 N.am    1  ZINC001010141213   -0.6100
      7 C7         -8.4420    1.3707   57.6275 C.3     1  ZINC001010141213    0.0900
      8 C8         -9.4077    1.6896   58.7756 C.3     1  ZINC001010141213    0.0700
      9 N9        -10.5913    0.8280   58.6466 N.am    1  ZINC001010141213   -0.6000
     10 C10       -10.9811    0.0404   59.6684 C.2     1  ZINC001010141213    0.5900
     11 O11       -11.9617   -0.6680   59.5500 O.2     1  ZINC001010141213   -0.5200
     12 C12       -10.2156    0.0379   60.9338 C.2     1  ZINC001010141213    0.0300
     13 N13        -9.3011   -0.8820   61.1442 N.2     1  ZINC001010141213   -0.1800
     14 N14        -8.6103   -0.9270   62.2254 N.am    1  ZINC001010141213   -0.4400
     15 C15        -8.7816   -0.0302   63.2144 C.2     1  ZINC001010141213    0.4800
     16 O16        -8.1090   -0.0997   64.2297 O.2     1  ZINC001010141213   -0.5100
     17 C17        -9.7453    0.9924   63.0685 C.2     1  ZINC001010141213   -0.1800
     18 C18       -10.4664    1.0300   61.9122 C.2     1  ZINC001010141213   -0.0400
     19 C19       -11.3428    0.8412   57.3836 C.3     1  ZINC001010141213    0.1000
     20 C20       -10.3803    0.5266   56.2376 C.3     1  ZINC001010141213    0.1000
     21 N21        -9.3168    1.4383   52.9675 N.pl3   1  ZINC001010141213   -0.2700
     22 C22        -8.2153    0.4841   52.8185 C.3     1  ZINC001010141213    0.0900
     23 N23       -10.1923    1.7048   52.0662 N.2     1  ZINC001010141213   -0.2800
     24 C24       -11.0516    2.5926   52.4973 C.2     1  ZINC001010141213    0.0100
     25 H25       -12.1437    3.4133   55.2912 H       1  ZINC001010141213    0.0700
     26 H26       -10.6485    4.3748   55.3803 H       1  ZINC001010141213    0.0600
     27 H27       -11.8462    4.7081   54.1065 H       1  ZINC001010141213    0.0700
     28 H28        -8.0032    0.3850   57.7817 H       1  ZINC001010141213    0.0800
     29 H29        -7.6544    2.1233   57.5924 H       1  ZINC001010141213    0.1000
     30 H30        -8.9175    1.4973   59.7300 H       1  ZINC001010141213    0.1400
     31 H31        -9.7089    2.7357   58.7205 H       1  ZINC001010141213    0.0800
     32 H32        -7.9470   -1.6267   62.3326 H       1  ZINC001010141213    0.4500
     33 H33        -9.9025    1.7244   63.8468 H       1  ZINC001010141213    0.1700
     34 H34       -11.2151    1.7913   61.7504 H       1  ZINC001010141213    0.1700
     35 H35       -12.1305    0.0887   57.4187 H       1  ZINC001010141213    0.1100
     36 H36       -11.7817    1.8270   57.2294 H       1  ZINC001010141213    0.0800
     37 H37       -10.8718    0.7193   55.2838 H       1  ZINC001010141213    0.1100
     38 H38       -10.0772   -0.5190   56.2910 H       1  ZINC001010141213    0.0800
     39 H39        -8.5679   -0.5187   53.0599 H       1  ZINC001010141213    0.0900
     40 H40        -7.8535    0.5044   51.7904 H       1  ZINC001010141213    0.1000
     41 H41        -7.4046    0.7566   53.4943 H       1  ZINC001010141213    0.0900
     42 H42       -11.8871    2.9912   51.9411 H       1  ZINC001010141213    0.1900
@<TRIPOS>BOND
     1     1     2    1
     2     1    25    1
     3     1    26    1
     4     1    27    1
     5     2    24    1
     6     2     3    2
     7     3     4    1
     8     3    21    1
     9     4     5    2
    10     4     6   am
    11     6    20    1
    12     6     7    1
    13     7     8    1
    14     7    28    1
    15     7    29    1
    16     8     9    1
    17     8    30    1
    18     8    31    1
    19     9    10   am
    20     9    19    1
    21    10    11    2
    22    10    12    1
    23    12    18    1
    24    12    13    2
    25    13    14    1
    26    14    15   am
    27    14    32    1
    28    15    16    2
    29    15    17    1
    30    17    18    2
    31    17    33    1
    32    18    34    1
    33    19    20    1
    34    19    35    1
    35    19    36    1
    36    20    37    1
    37    20    38    1
    38    21    22    1
    39    21    23    1
    40    22    39    1
    41    22    40    1
    42    22    41    1
    43    23    24    2
    44    24    42    1
@<TRIPOS>SUBSTRUCTURE
     1 ZINC001010141213        1 TEMP              0 ****  ****    0 ROOT


##########                                Name:    ZINC000431691749
##########                DOCK_Rotatable_Bonds:                   4
##########                         Heavy_Atoms:                  24
##########                    Molecular_Weight:             328.454
##########                DOCK_Rotatable_Bonds:                   4
##########                       Formal_Charge:         -0.00999957
##########                     HBond_Acceptors:                   4
##########                        HBond_Donors:                   0
##########                         Heavy_Atoms:                  24
##########                          Grid_Score:          -22.161032
##########                     Grid_vdw_energy:          -21.491255
##########                      Grid_es_energy:           -0.669777
##########           Internal_energy_repulsive:          107.049110

@<TRIPOS>MOLECULE
ZINC000431691749
 52 54 1 0 0
SMALL
USER_CHARGES


@<TRIPOS>ATOM
      1 C1        -15.7155   -3.3267   57.2166 C.3     1  ZINC000431691749   -0.1200
      2 C2        -14.9783   -2.7881   58.4156 C.ar    1  ZINC000431691749   -0.0800
      3 C3        -15.2641   -3.2732   59.6778 C.ar    1  ZINC000431691749   -0.1200
      4 C4        -14.5880   -2.7791   60.7778 C.ar    1  ZINC000431691749   -0.1100
      5 C5        -13.6256   -1.8004   60.6152 C.ar    1  ZINC000431691749   -0.1100
      6 C6        -13.3390   -1.3157   59.3525 C.ar    1  ZINC000431691749   -0.0800
      7 C7        -12.2901   -0.2483   59.1751 C.3     1  ZINC000431691749    0.2000
      8 H8        -12.7262    0.6076   58.6602 H       1  ZINC000431691749    0.1100
      9 N9        -11.7947    0.1722   60.4881 N.am    1  ZINC000431691749   -0.5700
     10 C10       -11.1747   -0.6462   61.3610 C.2     1  ZINC000431691749    0.5200
     11 O11       -10.9310   -1.8246   61.2136 O.2     1  ZINC000431691749   -0.4400
     12 C12       -10.8446    0.2133   62.5652 C.3     1  ZINC000431691749    0.0900
     13 H13       -11.3492   -0.1632   63.4550 H       1  ZINC000431691749    0.1300
     14 C14        -9.3319    0.2683   62.7888 C.3     1  ZINC000431691749   -0.1500
     15 N15       -11.3658    1.5409   62.1963 N.am    1  ZINC000431691749   -0.6000
     16 C16       -11.3111    2.7592   63.0080 C.3     1  ZINC000431691749    0.1500
     17 C17       -12.6803    3.4318   63.2024 C.3     1  ZINC000431691749   -0.1600
     18 C18       -12.8508    2.5459   64.4477 C.3     1  ZINC000431691749   -0.1400
     19 C19       -11.3159    2.4912   64.5223 C.3     1  ZINC000431691749   -0.1500
     20 C20       -11.8966    1.4176   60.9664 C.2     1  ZINC000431691749    0.7000
     21 O21       -12.4173    2.3335   60.3603 O.2     1  ZINC000431691749   -0.5300
     22 C22       -11.1305   -0.8053   58.3469 C.3     1  ZINC000431691749   -0.0700
     23 C23       -11.3677   -0.4991   56.8667 C.3     1  ZINC000431691749   -0.1400
     24 C24        -9.8219   -0.1542   58.7990 C.3     1  ZINC000431691749   -0.1400
     25 C25       -11.0423   -2.3197   58.5467 C.3     1  ZINC000431691749   -0.1600
     26 C26       -14.0121   -1.8128   58.2524 C.ar    1  ZINC000431691749   -0.1100
     27 H27       -15.1771   -4.1849   56.8145 H       1  ZINC000431691749    0.0700
     28 H28       -16.7181   -3.6336   57.5143 H       1  ZINC000431691749    0.0700
     29 H29       -15.7843   -2.5511   56.4539 H       1  ZINC000431691749    0.0700
     30 H30       -16.0161   -4.0380   59.8049 H       1  ZINC000431691749    0.1200
     31 H31       -14.8118   -3.1576   61.7642 H       1  ZINC000431691749    0.1200
     32 H32       -13.0978   -1.4139   61.4745 H       1  ZINC000431691749    0.1100
     33 H33        -8.8474    0.6695   61.8987 H       1  ZINC000431691749    0.0700
     34 H34        -9.1140    0.9109   63.6420 H       1  ZINC000431691749    0.0800
     35 H35        -8.9570   -0.7361   62.9853 H       1  ZINC000431691749    0.0800
     36 H36       -10.5272    3.4459   62.6885 H       1  ZINC000431691749    0.1000
     37 H37       -12.6157    4.4960   63.4291 H       1  ZINC000431691749    0.0900
     38 H38       -13.3925    3.2098   62.4077 H       1  ZINC000431691749    0.0700
     39 H39       -13.3109    3.0614   65.2906 H       1  ZINC000431691749    0.0700
     40 H40       -13.3125    1.5811   64.2373 H       1  ZINC000431691749    0.0800
     41 H41       -10.9265    1.5098   64.7932 H       1  ZINC000431691749    0.1000
     42 H42       -10.8782    3.2983   65.1099 H       1  ZINC000431691749    0.0900
     43 H43       -11.4306    0.5797   56.7244 H       1  ZINC000431691749    0.0600
     44 H44       -10.5416   -0.8959   56.2767 H       1  ZINC000431691749    0.0600
     45 H45       -12.3001   -0.9630   56.5446 H       1  ZINC000431691749    0.0600
     46 H46        -9.6529   -0.3722   59.8535 H       1  ZINC000431691749    0.0500
     47 H47        -8.9958   -0.5509   58.2090 H       1  ZINC000431691749    0.0600
     48 H48        -9.8848    0.9247   58.6567 H       1  ZINC000431691749    0.0500
     49 H49       -12.0189   -2.7050   58.8394 H       1  ZINC000431691749    0.0700
     50 H50       -10.7298   -2.7914   57.6151 H       1  ZINC000431691749    0.0400
     51 H51       -10.3152   -2.5413   59.3280 H       1  ZINC000431691749    0.1000
     52 H52       -13.7881   -1.4343   57.2659 H       1  ZINC000431691749    0.1300
@<TRIPOS>BOND
     1     1     2    1
     2     1    27    1
     3     1    28    1
     4     1    29    1
     5     2    26   ar
     6     2     3   ar
     7     3     4   ar
     8     3    30    1
     9     4     5   ar
    10     4    31    1
    11     5     6   ar
    12     5    32    1
    13     6     7    1
    14     6    26   ar
    15     7     8    1
    16     7     9    1
    17     7    22    1
    18     9    20   am
    19     9    10   am
    20    10    11    2
    21    10    12    1
    22    12    13    1
    23    12    14    1
    24    12    15    1
    25    14    33    1
    26    14    34    1
    27    14    35    1
    28    15    16    1
    29    15    20   am
    30    16    19    1
    31    16    17    1
    32    16    36    1
    33    17    18    1
    34    17    37    1
    35    17    38    1
    36    18    19    1
    37    18    39    1
    38    18    40    1
    39    19    41    1
    40    19    42    1
    41    20    21    2
    42    22    23    1
    43    22    24    1
    44    22    25    1
    45    23    43    1
    46    23    44    1
    47    23    45    1
    48    24    46    1
    49    24    47    1
    50    24    48    1
    51    25    49    1
    52    25    50    1
    53    25    51    1
    54    26    52    1
@<TRIPOS>SUBSTRUCTURE
     1 ZINC000431691749        1 TEMP              0 ****  ****    0 ROOT


##########                                Name:    ZINC000541315701
##########                DOCK_Rotatable_Bonds:                   4
##########                         Heavy_Atoms:                  25
##########                    Molecular_Weight:             422.709
##########                DOCK_Rotatable_Bonds:                   4
##########                       Formal_Charge:           0.0300003
##########                     HBond_Acceptors:                   6
##########                        HBond_Donors:                   0
##########                         Heavy_Atoms:                  25
##########                          Grid_Score:          -22.026154
##########                     Grid_vdw_energy:          -21.046135
##########                      Grid_es_energy:           -0.980019
##########           Internal_energy_repulsive:           36.344242

@<TRIPOS>MOLECULE
ZINC000541315701
 42 44 1 0 0
SMALL
USER_CHARGES


@<TRIPOS>ATOM
      1 C1        -11.1194    2.2255   56.3581 C.3     1  ZINC000541315701    0.0800
      2 N2         -9.8012    1.7761   56.8124 N.am    1  ZINC000541315701   -0.5700
      3 C3         -9.6923    1.0241   57.9255 C.2     1  ZINC000541315701    0.5400
      4 O4         -8.6010    0.6520   58.3017 O.2     1  ZINC000541315701   -0.5000
      5 C5        -10.9267    0.6454   58.7028 C.3     1  ZINC000541315701   -0.1100
      6 H6        -11.8040    1.1616   58.3131 H       1  ZINC000541315701    0.1300
      7 C7        -11.1370   -0.8864   58.6952 C.3     1  ZINC000541315701   -0.1500
      8 C8        -10.4546   -1.3608   59.9593 C.2     1  ZINC000541315701    0.5200
      9 O9        -10.1458   -2.5103   60.1925 O.2     1  ZINC000541315701   -0.5200
     10 N10       -10.2399   -0.3230   60.7861 N.am    1  ZINC000541315701   -0.6100
     11 C11        -9.5897   -0.4295   62.0946 C.3     1  ZINC000541315701    0.0900
     12 C12       -10.7407    0.9313   60.2094 C.3     1  ZINC000541315701    0.1900
     13 H13       -10.0136    1.7302   60.3552 H       1  ZINC000541315701    0.1100
     14 C14       -12.0581    1.3051   60.8384 C.ar    1  ZINC000541315701   -0.0900
     15 C15       -12.6698    2.4985   60.5032 C.ar    1  ZINC000541315701   -0.1000
     16 C16       -13.8787    2.8420   61.0795 C.ar    1  ZINC000541315701   -0.1000
     17 C17       -14.4760    1.9926   61.9913 C.ar    1  ZINC000541315701   -0.1000
     18 C18       -13.8642    0.7978   62.3271 C.ar    1  ZINC000541315701   -0.0300
     19 Cl19      -14.6141   -0.2702   63.4720 Cl      1  ZINC000541315701   -0.0600
     20 C20       -12.6574    0.4520   61.7460 C.ar    1  ZINC000541315701   -0.0900
     21 C21        -8.6591    2.1265   56.0933 C.ar    1  ZINC000541315701    0.3800
     22 N22        -7.7208    2.8603   56.6697 N.ar    1  ZINC000541315701   -0.4700
     23 C23        -6.6249    3.2135   56.0253 C.ar    1  ZINC000541315701    0.1300
     24 C24        -6.4169    2.8268   54.7163 C.ar    1  ZINC000541315701   -0.1600
     25 C25        -7.3769    2.0560   54.0745 C.ar    1  ZINC000541315701   -0.0400
     26 C26        -8.5136    1.6967   54.7781 C.ar    1  ZINC000541315701   -0.1300
     27 Br27       -9.8565    0.6475   53.9586 Br      1  ZINC000541315701   -0.0200
     28 H28       -11.7565    2.4146   57.2221 H       1  ZINC000541315701    0.0900
     29 H29       -11.0110    3.1426   55.7789 H       1  ZINC000541315701    0.0800
     30 H30       -11.5716    1.4537   55.7351 H       1  ZINC000541315701    0.0700
     31 H31       -12.2001   -1.1256   58.7229 H       1  ZINC000541315701    0.1200
     32 H32       -10.6675   -1.3317   57.8180 H       1  ZINC000541315701    0.1100
     33 H33        -9.3160   -1.4679   62.2810 H       1  ZINC000541315701    0.0900
     34 H34        -8.6931    0.1903   62.1064 H       1  ZINC000541315701    0.0700
     35 H35       -10.2763   -0.0898   62.8702 H       1  ZINC000541315701    0.0600
     36 H36       -12.2029    3.1630   59.7912 H       1  ZINC000541315701    0.1300
     37 H37       -14.3562    3.7746   60.8173 H       1  ZINC000541315701    0.1400
     38 H38       -15.4200    2.2613   62.4419 H       1  ZINC000541315701    0.1400
     39 H39       -12.1794   -0.4804   62.0077 H       1  ZINC000541315701    0.1400
     40 H40        -5.8809    3.8135   56.5284 H       1  ZINC000541315701    0.1700
     41 H41        -5.5168    3.1210   54.1970 H       1  ZINC000541315701    0.1500
     42 H42        -7.2380    1.7406   53.0510 H       1  ZINC000541315701    0.1500
@<TRIPOS>BOND
     1     1     2    1
     2     1    28    1
     3     1    29    1
     4     1    30    1
     5     2     3   am
     6     2    21    1
     7     3     4    2
     8     3     5    1
     9     5     6    1
    10     5    12    1
    11     5     7    1
    12     7     8    1
    13     7    31    1
    14     7    32    1
    15     8     9    2
    16     8    10   am
    17    10    11    1
    18    10    12    1
    19    11    33    1
    20    11    34    1
    21    11    35    1
    22    12    13    1
    23    12    14    1
    24    14    20   ar
    25    14    15   ar
    26    15    16   ar
    27    15    36    1
    28    16    17   ar
    29    16    37    1
    30    17    18   ar
    31    17    38    1
    32    18    19    1
    33    18    20   ar
    34    20    39    1
    35    21    26   ar
    36    21    22   ar
    37    22    23   ar
    38    23    24   ar
    39    23    40    1
    40    24    25   ar
    41    24    41    1
    42    25    26   ar
    43    25    42    1
    44    26    27    1
@<TRIPOS>SUBSTRUCTURE
     1 ZINC000541315701        1 TEMP              0 ****  ****    0 ROOT


##########                                Name:    ZINC000656860804
##########                DOCK_Rotatable_Bonds:                   2
##########                         Heavy_Atoms:                  19
##########                    Molecular_Weight:             388.068
##########                DOCK_Rotatable_Bonds:                   2
##########                       Formal_Charge:          8.9407e-08
##########                     HBond_Acceptors:                   8
##########                        HBond_Donors:                   1
##########                         Heavy_Atoms:                  19
##########                          Grid_Score:          -22.000675
##########                     Grid_vdw_energy:          -21.500565
##########                      Grid_es_energy:           -0.500110
##########           Internal_energy_repulsive:           17.668642

@<TRIPOS>MOLECULE
ZINC000656860804
 28 29 1 0 0
SMALL
USER_CHARGES


@<TRIPOS>ATOM
      1 O1         -7.3190   -0.2759   51.7808 O.2     1  ZINC000656860804   -0.5400
      2 C2         -7.3211    0.9361   51.7360 C.2     1  ZINC000656860804    0.5100
      3 C3         -6.0188    1.6637   51.9306 C.3     1  ZINC000656860804    0.1100
      4 N4         -6.1956    3.0697   51.5379 N.am    1  ZINC000656860804   -1.0000
      5 S5         -5.0498    3.8657   50.6458 S.o2    1  ZINC000656860804    2.6900
      6 O6         -4.8132    3.0685   49.4936 O.2     1  ZINC000656860804   -0.9200
      7 O7         -5.4644    5.2233   50.5798 O.2     1  ZINC000656860804   -0.9300
      8 C8         -3.5557    3.8466   51.5795 C.ar    1  ZINC000656860804   -0.6500
      9 C9         -2.4323    3.2218   51.0723 C.ar    1  ZINC000656860804    0.0100
     10 C10        -1.2588    3.2065   51.8050 C.ar    1  ZINC000656860804   -0.0400
     11 Cl11        0.1526    2.4220   51.1677 Cl      1  ZINC000656860804   -0.0200
     12 C12        -1.2103    3.8173   53.0465 C.ar    1  ZINC000656860804    0.0200
     13 Cl13        0.2619    3.7992   53.9664 Cl      1  ZINC000656860804   -0.0100
     14 C14        -2.3353    4.4427   53.5535 C.ar    1  ZINC000656860804   -0.0900
     15 C15        -3.5060    4.4622   52.8176 C.ar    1  ZINC000656860804    0.0100
     16 Br16       -5.0439    5.3169   53.5105 Br      1  ZINC000656860804    0.0100
     17 C17        -7.4332    3.7410   51.9697 C.3     1  ZINC000656860804    0.0900
     18 C18        -8.6194    3.0023   51.3470 C.3     1  ZINC000656860804    0.0800
     19 N19        -8.4770    1.5625   51.5111 N.am    1  ZINC000656860804   -0.7100
     20 H20        -5.7247    1.6116   52.9790 H       1  ZINC000656860804    0.1200
     21 H21        -5.2484    1.2055   51.3105 H       1  ZINC000656860804    0.1200
     22 H22        -2.4705    2.7449   50.1040 H       1  ZINC000656860804    0.1700
     23 H23        -2.2982    4.9190   54.5220 H       1  ZINC000656860804    0.1700
     24 H24        -7.5093    3.7085   53.0566 H       1  ZINC000656860804    0.1000
     25 H25        -7.4267    4.7772   51.6319 H       1  ZINC000656860804    0.1200
     26 H26        -9.5401    3.3314   51.8290 H       1  ZINC000656860804    0.1000
     27 H27        -8.6690    3.2356   50.2834 H       1  ZINC000656860804    0.0800
     28 H28        -9.2802    1.0210   51.4593 H       1  ZINC000656860804    0.4000
@<TRIPOS>BOND
     1     1     2    2
     2     2    19   am
     3     2     3    1
     4     3     4    1
     5     3    20    1
     6     3    21    1
     7     4     5   am
     8     4    17    1
     9     5     6    2
    10     5     7    2
    11     5     8    1
    12     8    15   ar
    13     8     9   ar
    14     9    10   ar
    15     9    22    1
    16    10    11    1
    17    10    12   ar
    18    12    13    1
    19    12    14   ar
    20    14    15   ar
    21    14    23    1
    22    15    16    1
    23    17    18    1
    24    17    24    1
    25    17    25    1
    26    18    19    1
    27    18    26    1
    28    18    27    1
    29    19    28    1
@<TRIPOS>SUBSTRUCTURE
     1 ZINC000656860804        1 TEMP              0 ****  ****    0 ROOT


##########                                Name:    ZINC001318556452
##########                DOCK_Rotatable_Bonds:                   4
##########                         Heavy_Atoms:                  26
##########                    Molecular_Weight:             368.456
##########                DOCK_Rotatable_Bonds:                   4
##########                       Formal_Charge:          -0.0200005
##########                     HBond_Acceptors:                   6
##########                        HBond_Donors:                   1
##########                         Heavy_Atoms:                  26
##########                          Grid_Score:          -21.508528
##########                     Grid_vdw_energy:          -22.297525
##########                      Grid_es_energy:            0.788998
##########           Internal_energy_repulsive:           14.189689

@<TRIPOS>MOLECULE
ZINC001318556452
 46 48 1 0 0
SMALL
USER_CHARGES


@<TRIPOS>ATOM
      1 C1         -7.3001    2.1845   53.2998 C.3     1  ZINC001318556452   -0.1300
      2 C2         -6.2148    2.8196   54.1302 C.ar    1  ZINC001318556452   -0.1000
      3 C3         -5.1858    3.5051   53.5156 C.ar    1  ZINC001318556452   -0.0500
      4 C4         -5.1483    3.6175   52.0132 C.3     1  ZINC001318556452   -0.4100
      5 S5         -4.1275    2.2816   51.3322 S.o     1  ZINC001318556452    1.2500
      6 C6         -4.2028    2.5811   49.5447 C.3     1  ZINC001318556452   -0.4900
      7 O7         -4.7284    1.0284   51.6283 O.2     1  ZINC001318556452   -0.8400
      8 C8         -4.1898    4.0890   54.2771 C.ar    1  ZINC001318556452   -0.1200
      9 C9         -4.2203    3.9878   55.6558 C.ar    1  ZINC001318556452   -0.1000
     10 C10        -5.2462    3.3027   56.2770 C.ar    1  ZINC001318556452   -0.1200
     11 C11        -6.2515    2.7208   55.5156 C.ar    1  ZINC001318556452    0.1400
     12 N12        -7.2916    2.0271   56.1411 N.am    1  ZINC001318556452   -0.6600
     13 C13        -8.4544    2.6538   56.4086 C.2     1  ZINC001318556452    0.5600
     14 O14        -8.5988    3.8217   56.1061 O.2     1  ZINC001318556452   -0.5000
     15 C15        -9.5575    1.9181   57.0721 C.2     1  ZINC001318556452   -0.0300
     16 C16       -10.1104    0.8140   56.4884 C.2     1  ZINC001318556452   -0.1600
     17 C17       -11.1958    0.1100   57.1672 C.2     1  ZINC001318556452    0.5300
     18 O18       -11.6896   -0.8748   56.6472 O.2     1  ZINC001318556452   -0.5200
     19 N19       -11.6575    0.5323   58.3571 N.am    1  ZINC001318556452   -0.5200
     20 C20       -12.7466   -0.2020   59.0058 C.3     1  ZINC001318556452    0.0600
     21 C21       -11.1265    1.6418   58.9793 C.ar    1  ZINC001318556452    0.1800
     22 C22       -11.6190    2.0627   60.2117 C.ar    1  ZINC001318556452   -0.1700
     23 C23       -11.0791    3.1735   60.8226 C.ar    1  ZINC001318556452   -0.0600
     24 C24       -10.0465    3.8795   60.2210 C.ar    1  ZINC001318556452   -0.1500
     25 C25        -9.5478    3.4845   59.0119 C.ar    1  ZINC001318556452   -0.0600
     26 C26       -10.0764    2.3573   58.3765 C.ar    1  ZINC001318556452   -0.1100
     27 H27        -8.1071    2.9011   53.1470 H       1  ZINC001318556452    0.0800
     28 H28        -6.8914    1.8864   52.3342 H       1  ZINC001318556452    0.0800
     29 H29        -7.6869    1.3066   53.8171 H       1  ZINC001318556452    0.0700
     30 H30        -6.1609    3.5387   51.6176 H       1  ZINC001318556452    0.1000
     31 H31        -4.7219    4.5802   51.7314 H       1  ZINC001318556452    0.1300
     32 H32        -3.8001    3.5698   49.3246 H       1  ZINC001318556452    0.1100
     33 H33        -3.6145    1.8251   49.0245 H       1  ZINC001318556452    0.1100
     34 H34        -5.2391    2.5283   49.2109 H       1  ZINC001318556452    0.0800
     35 H35        -3.3863    4.6249   53.7939 H       1  ZINC001318556452    0.1200
     36 H36        -3.4408    4.4446   56.2475 H       1  ZINC001318556452    0.1300
     37 H37        -5.2692    3.2237   57.3538 H       1  ZINC001318556452    0.1500
     38 H38        -7.1764    1.0947   56.3826 H       1  ZINC001318556452    0.4100
     39 H39        -9.7486    0.4646   55.5327 H       1  ZINC001318556452    0.1600
     40 H40       -13.0413   -1.0436   58.3791 H       1  ZINC001318556452    0.1000
     41 H41       -12.4097   -0.5707   59.9746 H       1  ZINC001318556452    0.0800
     42 H42       -13.5993    0.4624   59.1464 H       1  ZINC001318556452    0.0800
     43 H43       -12.4225    1.5200   60.6876 H       1  ZINC001318556452    0.1400
     44 H44       -11.4631    3.4981   61.7784 H       1  ZINC001318556452    0.1300
     45 H45        -9.6342    4.7484   60.7125 H       1  ZINC001318556452    0.1300
     46 H46        -8.7443    4.0391   58.5503 H       1  ZINC001318556452    0.1700
@<TRIPOS>BOND
     1     1     2    1
     2     1    27    1
     3     1    28    1
     4     1    29    1
     5     2    11   ar
     6     2     3   ar
     7     3     4    1
     8     3     8   ar
     9     4     5    1
    10     4    30    1
    11     4    31    1
    12     5     6    1
    13     5     7    2
    14     6    32    1
    15     6    33    1
    16     6    34    1
    17     8     9   ar
    18     8    35    1
    19     9    10   ar
    20     9    36    1
    21    10    11   ar
    22    10    37    1
    23    11    12    1
    24    12    13   am
    25    12    38    1
    26    13    14    2
    27    13    15    1
    28    15    26    1
    29    15    16    2
    30    16    17    1
    31    16    39    1
    32    17    18    2
    33    17    19   am
    34    19    20    1
    35    19    21    1
    36    20    40    1
    37    20    41    1
    38    20    42    1
    39    21    26   ar
    40    21    22   ar
    41    22    23   ar
    42    22    43    1
    43    23    24   ar
    44    23    44    1
    45    24    25   ar
    46    24    45    1
    47    25    26   ar
    48    25    46    1
@<TRIPOS>SUBSTRUCTURE
     1 ZINC001318556452        1 TEMP              0 ****  ****    0 ROOT


##########                                Name:    ZINC000820901229
##########                DOCK_Rotatable_Bonds:                   3
##########                         Heavy_Atoms:                  18
##########                    Molecular_Weight:             331.233
##########                DOCK_Rotatable_Bonds:                   3
##########                       Formal_Charge:           0.0099999
##########                     HBond_Acceptors:                   5
##########                        HBond_Donors:                   1
##########                         Heavy_Atoms:                  18
##########                          Grid_Score:          -20.500093
##########                     Grid_vdw_energy:          -20.122404
##########                      Grid_es_energy:           -0.377689
##########           Internal_energy_repulsive:            3.620113

@<TRIPOS>MOLECULE
ZINC000820901229
 33 35 1 0 0
SMALL
USER_CHARGES


@<TRIPOS>ATOM
      1 O1        -12.8263   -0.2347   56.1924 O.2     1  ZINC000820901229   -0.5300
      2 C2        -11.6654   -0.1138   55.8503 C.2     1  ZINC000820901229    0.6000
      3 N3        -10.7343    0.2650   56.7481 N.am    1  ZINC000820901229   -0.7100
      4 C4        -11.1215    0.5370   58.1346 C.3     1  ZINC000820901229    0.1600
      5 H5        -12.2068    0.5019   58.2300 H       1  ZINC000820901229    0.1000
      6 C6        -10.6035    1.9202   58.5604 C.3     1  ZINC000820901229   -0.1300
      7 C7        -10.9320    2.2146   60.0210 C.3     1  ZINC000820901229   -0.1100
      8 C8        -10.4072    1.1061   60.9486 C.3     1  ZINC000820901229   -0.1100
      9 C9        -11.0247   -0.1981   60.4879 C.3     1  ZINC000820901229    0.0800
     10 H10       -12.1100   -0.1002   60.4584 H       1  ZINC000820901229    0.0700
     11 O11       -10.6694   -1.3816   61.1938 O.3     1  ZINC000820901229   -0.3700
     12 C12       -11.0279   -2.4745   60.3102 C.3     1  ZINC000820901229    0.0500
     13 C13       -10.9573   -1.9298   58.8600 C.3     1  ZINC000820901229   -0.1500
     14 C14       -10.4881   -0.4881   59.0586 C.3     1  ZINC000820901229   -0.1400
     15 H15        -9.4004   -0.4262   59.0246 H       1  ZINC000820901229    0.0900
     16 C16       -11.2761   -0.3872   54.4567 C.2     1  ZINC000820901229    0.0100
     17 C17       -12.1224   -0.9114   53.5424 C.2     1  ZINC000820901229   -0.2200
     18 S18       -11.2964   -1.0748   52.0548 S.3     1  ZINC000820901229    0.3100
     19 C19        -9.8686   -0.4340   52.7382 C.2     1  ZINC000820901229   -0.0100
     20 Br20       -8.2429   -0.1895   51.8038 Br      1  ZINC000820901229    0.0700
     21 N21       -10.0549   -0.1349   53.9765 N.2     1  ZINC000820901229   -0.4100
     22 H22        -9.8078    0.3575   56.4762 H       1  ZINC000820901229    0.4100
     23 H23        -9.5225    1.9530   58.4249 H       1  ZINC000820901229    0.0700
     24 H24       -11.0635    2.6821   57.9312 H       1  ZINC000820901229    0.0700
     25 H25       -10.4756    3.1629   60.3049 H       1  ZINC000820901229    0.0800
     26 H26       -12.0132    2.2924   60.1346 H       1  ZINC000820901229    0.0700
     27 H27        -9.3210    1.0472   60.8781 H       1  ZINC000820901229    0.0700
     28 H28       -10.7023    1.3130   61.9772 H       1  ZINC000820901229    0.0800
     29 H29       -10.3233   -3.2971   60.4325 H       1  ZINC000820901229    0.0900
     30 H30       -12.0401   -2.8133   60.5306 H       1  ZINC000820901229    0.0600
     31 H31       -10.2308   -2.4913   58.2725 H       1  ZINC000820901229    0.0800
     32 H32       -11.9400   -1.9591   58.3892 H       1  ZINC000820901229    0.0800
     33 H33       -13.1520   -1.1833   53.7225 H       1  ZINC000820901229    0.2000
@<TRIPOS>BOND
     1     1     2    2
     2     2     3   am
     3     2    16    1
     4     3     4    1
     5     3    22    1
     6     4     5    1
     7     4    14    1
     8     4     6    1
     9     6     7    1
    10     6    23    1
    11     6    24    1
    12     7     8    1
    13     7    25    1
    14     7    26    1
    15     8     9    1
    16     8    27    1
    17     8    28    1
    18     9    10    1
    19     9    14    1
    20     9    11    1
    21    11    12    1
    22    12    13    1
    23    12    29    1
    24    12    30    1
    25    13    14    1
    26    13    31    1
    27    13    32    1
    28    14    15    1
    29    16    21    1
    30    16    17    2
    31    17    18    1
    32    17    33    1
    33    18    19    1
    34    19    20    1
    35    19    21    2
@<TRIPOS>SUBSTRUCTURE
     1 ZINC000820901229        1 TEMP              0 ****  ****    0 ROOT


##########                                Name:    ZINC000569288350
##########                DOCK_Rotatable_Bonds:                   3
##########                         Heavy_Atoms:                  19
##########                    Molecular_Weight:             393.559
##########                DOCK_Rotatable_Bonds:                   3
##########                       Formal_Charge:           0.0299999
##########                     HBond_Acceptors:                   5
##########                        HBond_Donors:                   1
##########                         Heavy_Atoms:                  19
##########                          Grid_Score:          -17.741861
##########                     Grid_vdw_energy:          -18.055727
##########                      Grid_es_energy:            0.313866
##########           Internal_energy_repulsive:            4.495166

@<TRIPOS>MOLECULE
ZINC000569288350
 26 27 1 0 0
SMALL
USER_CHARGES


@<TRIPOS>ATOM
      1 O1        -12.7005   -3.3252   56.4045 O.2     1  ZINC000569288350   -0.4800
      2 C2        -13.4107   -2.4467   56.8542 C.2     1  ZINC000569288350    0.5700
      3 N3        -13.6695   -1.3470   56.1192 N.am    1  ZINC000569288350   -0.6600
      4 C4        -13.1164   -1.2138   54.8410 C.ar    1  ZINC000569288350    0.1800
      5 C5        -11.7396   -1.1248   54.6847 C.ar    1  ZINC000569288350   -0.1200
      6 C6        -11.1950   -0.9933   53.4218 C.ar    1  ZINC000569288350   -0.0600
      7 C7        -12.0186   -0.9496   52.3126 C.ar    1  ZINC000569288350   -0.1500
      8 C8        -13.3928   -1.0381   52.4629 C.ar    1  ZINC000569288350    0.1300
      9 F9        -14.1952   -0.9957   51.3769 F       1  ZINC000569288350   -0.1200
     10 C10       -13.9435   -1.1761   53.7251 C.ar    1  ZINC000569288350   -0.1000
     11 Cl11      -15.6655   -1.2877   53.9149 Cl      1  ZINC000569288350   -0.0400
     12 C12       -13.9942   -2.5872   58.2028 C.ar    1  ZINC000569288350   -0.1400
     13 C13       -15.2339   -3.2126   58.3706 C.ar    1  ZINC000569288350    0.1400
     14 F14       -15.9021   -3.6913   57.2984 F       1  ZINC000569288350   -0.1200
     15 C15       -15.7732   -3.3400   59.6377 C.ar    1  ZINC000569288350   -0.1300
     16 C16       -15.0901   -2.8505   60.7352 C.ar    1  ZINC000569288350   -0.0600
     17 C17       -13.8630   -2.2301   60.5756 C.ar    1  ZINC000569288350   -0.0900
     18 C18       -13.3085   -2.1012   59.3192 C.ar    1  ZINC000569288350   -0.0500
     19 I19       -11.4510   -1.1615   59.0828 I       1  ZINC000569288350    0.0000
     20 H20       -14.2392   -0.6480   56.4763 H       1  ZINC000569288350    0.4200
     21 H21       -11.0944   -1.1580   55.5503 H       1  ZINC000569288350    0.1600
     22 H22       -10.1240   -0.9240   53.3011 H       1  ZINC000569288350    0.1500
     23 H23       -11.5899   -0.8460   51.3267 H       1  ZINC000569288350    0.1500
     24 H24       -16.7303   -3.8226   59.7700 H       1  ZINC000569288350    0.1500
     25 H25       -15.5161   -2.9523   61.7223 H       1  ZINC000569288350    0.1500
     26 H26       -13.3357   -1.8501   61.4382 H       1  ZINC000569288350    0.1500
@<TRIPOS>BOND
     1     1     2    2
     2     2     3   am
     3     2    12    1
     4     3     4    1
     5     3    20    1
     6     4    10   ar
     7     4     5   ar
     8     5     6   ar
     9     5    21    1
    10     6     7   ar
    11     6    22    1
    12     7     8   ar
    13     7    23    1
    14     8     9    1
    15     8    10   ar
    16    10    11    1
    17    12    18   ar
    18    12    13   ar
    19    13    14    1
    20    13    15   ar
    21    15    16   ar
    22    15    24    1
    23    16    17   ar
    24    16    25    1
    25    17    18   ar
    26    17    26    1
    27    18    19    1
@<TRIPOS>SUBSTRUCTURE
     1 ZINC000569288350        1 TEMP              0 ****  ****    0 ROOT

